WDeixler_Southern_Model_Code_SSPB/lines.dss
! converted from CYME5.04 .sxst-file with OpenDSS_SFC.py (version: 01.00.012, last update: 03/22/2017)

! overhead lines by phase
New line.1  Phases=1 Bus1=189_3739545.1 Bus2=9_1306801.1 Length=19.944523 units=m Spacing=1PH_1_YNNY wires=[4_ACSR 4_ACSR] faultrate=4.8606136e-05 repair=3.7
New line.227_2736023_10  Phases=3 Bus1=941_6309792.1.2.3 Bus2=941_6315057.1.2.3 Length=22.302476 units=m Spacing=3PH_H_3_YYYY wires=[1/0_ACSR 1/0_ACSR 1/0_ACSR 1/0_ACSR] faultrate=4.8606136e-05 repair=3.7
New line.227_2736023_12  Phases=3 Bus1=941_6315057.1.2.3 Bus2=226_409546.1.2.3 Length=16.991614 units=m Spacing=3PH_H_3_YYYY wires=[1/0_ACSR 1/0_ACSR 1/0_ACSR 1/0_ACSR] faultrate=4.8606136e-05 repair=3.7
New line.227_2736023_17  Phases=3 Bus1=226_409546.1.2.3 Bus2=204_1267300.1.2.3 Length=2.904913 units=m Spacing=3PH_H_3_YYYY wires=[1/0_ACSR 1/0_ACSR 1/0_ACSR 1/0_ACSR] faultrate=4.8606136e-05 repair=3.7
New line.227_2736023_6  Phases=3 Bus1=941_6309792.1.2.3 Bus2=941_6315057.1.2.3 Length=22.302476 units=m Spacing=3PH_H_3_YYYY wires=[1/0_ACSR 1/0_ACSR 1/0_ACSR 1/0_ACSR] faultrate=4.8606136e-05 repair=3.7
New line.227_2736081_1  Phases=1 Bus1=188_12024.3 Bus2=204_669812.3 Length=4.754475 units=m Spacing=1PH_1_NNYY wires=[2_ACSR 1/0_ACSR] faultrate=4.8606136e-05 repair=3.7
New line.227_2736132_3  Phases=1 Bus1=188_12918.2 Bus2=941_6417492.2 Length=41.744735 units=m Spacing=1PH_1_NYNY wires=[2_ACSR 2_ACSR] faultrate=4.8606136e-05 repair=3.7
New line.227_2736132_5  Phases=1 Bus1=941_6417492.2 Bus2=941_8979265.2 Length=41.267243 units=m Spacing=1PH_1_NYNY wires=[2_ACSR 2_ACSR] faultrate=4.8606136e-05 repair=3.7
New line.227_2736135_2  Phases=3 Bus1=195_1482195.1.2.3 Bus2=941_6308994.1.2.3 Length=58.500943 units=m Spacing=3PH_H_3_YYYY wires=[1/0_ACSR 1/0_ACSR 1/0_ACSR 1/0_ACSR] faultrate=4.8606136e-05 repair=3.7
New line.227_2736158_10  Phases=3 Bus1=189_3751892.1.2.3 Bus2=941_6430828.1.2.3 Length=4.739426 units=m Spacing=3PH_H_3_YYYY wires=[336_ACSR 336_ACSR 336_ACSR 4/0_ACSR] faultrate=4.8606136e-05 repair=3.7
New line.227_2736158_11  Phases=3 Bus1=189_3751891.1.2.3 Bus2=189_3751892.1.2.3 Length=59.392906 units=m Spacing=3PH_H_3_YYYY wires=[336_ACSR 336_ACSR 336_ACSR 4/0_ACSR] faultrate=4.8606136e-05 repair=3.7
New line.227_2736158_5  Phases=3 Bus1=188_12739.1.2.3 Bus2=189_3735066.1.2.3 Length=6.979981 units=m Spacing=3PH_H_3_YYYY wires=[336_ACSR 336_ACSR 336_ACSR 4/0_ACSR] faultrate=4.8606136e-05 repair=3.7
New line.227_2736158_6  Phases=3 Bus1=941_6430828.1.2.3 Bus2=941_3220122.1.2.3 Length=130.837919 units=m Spacing=3PH_H_3_YYYY wires=[336_ACSR 336_ACSR 336_ACSR 4/0_ACSR] faultrate=4.8606136e-05 repair=3.7
New line.227_2736158_9  Phases=3 Bus1=189_3735066.1.2.3 Bus2=189_3751891.1.2.3 Length=57.558206 units=m Spacing=3PH_H_3_YYYY wires=[336_ACSR 336_ACSR 336_ACSR 4/0_ACSR] faultrate=4.8606136e-05 repair=3.7
New line.227_2736206_1  Phases=3 Bus1=195_1467482.1.2.3 Bus2=202_65565.1.2.3 Length=40.435602 units=m Spacing=3PH_H_3_YYYY wires=[336_ACSR 336_ACSR 336_ACSR 3/0_ACSR] faultrate=4.8606136e-05 repair=3.7
New line.227_2736226_2  Phases=2 Bus1=941_6308997.2.3 Bus2=941_6309036.2.3 Length=108.708415 units=m Spacing=2PH_H_2_NYYY wires=[2_ACSR 2_ACSR 2_ACSR] faultrate=4.8606136e-05 repair=3.7
New line.227_2736228_5  Phases=3 Bus1=189_2629571.1.2.3 Bus2=941_6314980.1.2.3 Length=33.768130 units=m Spacing=3PH_H_3_YYYY wires=[336_ACSR 336_ACSR 336_ACSR 3/0_ACSR] faultrate=4.8606136e-05 repair=3.7
New line.227_2736228_6  Phases=3 Bus1=941_9052479.1.2.3 Bus2=941_6314980.1.2.3 Length=33.768130 units=m Spacing=3PH_H_3_YYYY wires=[336_ACSR 336_ACSR 336_ACSR 3/0_ACSR] faultrate=4.8606136e-05 repair=3.7
New line.227_2736245_2  Phases=3 Bus1=941_6309113.1.2.3 Bus2=941_6309078.1.2.3 Length=131.099592 units=m Spacing=3PH_H_3_YYYY wires=[336_ACSR 336_ACSR 336_ACSR 3/0_ACSR] faultrate=4.8606136e-05 repair=3.7
New line.227_2736245_3  Phases=3 Bus1=941_6309113.1.2.3 Bus2=941_9002184.1.2.3 Length=82.613895 units=m Spacing=3PH_H_3_YYYY wires=[336_ACSR 336_ACSR 336_ACSR 3/0_ACSR] faultrate=4.8606136e-05 repair=3.7
New line.227_2736288_3  Phases=3 Bus1=195_1473511.1.2.3 Bus2=195_1482017.1.2.3 Length=84.746090 units=m Spacing=3PH_H_3_YYYY wires=[336_ACSR 336_ACSR 336_ACSR 3/0_ACSR] faultrate=4.8606136e-05 repair=3.7
New line.227_2736288_4  Phases=3 Bus1=195_1473511.1.2.3 Bus2=941_6962275.1.2.3 Length=4.751505 units=m Spacing=3PH_H_3_YYYY wires=[336_ACSR 336_ACSR 336_ACSR 3/0_ACSR] faultrate=4.8606136e-05 repair=3.7
New line.227_2736288_5  Phases=3 Bus1=941_6962275.1.2.3 Bus2=195_1482017.1.2.3 Length=79.994585 units=m Spacing=3PH_H_3_YYYY wires=[336_ACSR 336_ACSR 336_ACSR 3/0_ACSR] faultrate=4.8606136e-05 repair=3.7
New line.227_2736309_2  Phases=3 Bus1=941_8983174.1.2.3 Bus2=195_1468475.1.2.3 Length=43.208347 units=m Spacing=3PH_H_3_YYYY wires=[2_ACSR 2_ACSR 2_ACSR 2_ACSR] faultrate=4.8606136e-05 repair=3.7
New line.227_2736316_2  Phases=1 Bus1=941_6356829.1 Bus2=195_1496147.1 Length=94.367528 units=m Spacing=1PH_1_YNNY wires=[2_ACSR 2_ACSR] faultrate=4.8606136e-05 repair=3.7
New line.227_2736316_6  Phases=1 Bus1=941_6356829.1 Bus2=195_1493750.1 Length=1.628246 units=m Spacing=1PH_1_YNNY wires=[2_ACSR 2_ACSR] faultrate=4.8606136e-05 repair=3.7
New line.227_2736316_7  Phases=1 Bus1=941_6356829.1 Bus2=195_1496147.1 Length=94.367528 units=m Spacing=1PH_1_YNNY wires=[2_ACSR 2_ACSR] faultrate=4.8606136e-05 repair=3.7
New line.227_2736369_1  Phases=1 Bus1=195_1493749.1 Bus2=188_11991.1 Length=76.542864 units=m Spacing=1PH_1_YNNY wires=[4_ACSR 4_ACSR] faultrate=4.8606136e-05 repair=3.7
New line.227_2736413_2  Phases=1 Bus1=941_6309011.2 Bus2=195_1489913.2 Length=373.207537 units=m Spacing=1PH_1_NYNY wires=[2_ACSR 2_ACSR] faultrate=4.8606136e-05 repair=3.7
New line.227_2736413_4  Phases=1 Bus1=941_8998836.2 Bus2=195_1489913.2 Length=134.235403 units=m Spacing=1PH_1_NYNY wires=[2_ACSR 2_ACSR] faultrate=4.8606136e-05 repair=3.7
New line.227_2736477_4  Phases=1 Bus1=941_6314923.1 Bus2=204_676396.1 Length=7.742980 units=m Spacing=1PH_1_YNNY wires=[2_ACSR 2_ACSR] faultrate=4.8606136e-05 repair=3.7
New line.227_2736478_1  Phases=1 Bus1=195_1467504.1 Bus2=189_2617127.1 Length=43.355406 units=m Spacing=1PH_1_YNNY wires=[4_ACSR 4_ACSR] faultrate=4.8606136e-05 repair=3.7
New line.227_2736478_2  Phases=1 Bus1=189_2617127.1 Bus2=195_1467505.1 Length=31.462875 units=m Spacing=1PH_1_YNNY wires=[4_ACSR 4_ACSR] faultrate=4.8606136e-05 repair=3.7
New line.227_2736487_1  Phases=3 Bus1=195_1475060.1.2.3 Bus2=195_1478235.1.2.3 Length=89.171972 units=m Spacing=3PH_H_3_YYYY wires=[2_ACSR 2_ACSR 2_ACSR 2_ACSR] faultrate=4.8606136e-05 repair=3.7
New line.227_2736497_1  Phases=1 Bus1=204_669285.1 Bus2=195_1472915.1 Length=56.924436 units=m Spacing=1PH_1_YNNY wires=[2_ACSR 2_ACSR] faultrate=4.8606136e-05 repair=3.7
New line.227_2736514_2  Phases=1 Bus1=941_6308985.1 Bus2=195_1467739.1 Length=67.613626 units=m Spacing=1PH_1_YNNY wires=[2_ACSR 2_ACSR] faultrate=4.8606136e-05 repair=3.7
New line.227_2736517_1  Phases=1 Bus1=188_12702.1 Bus2=195_1482856.1 Length=158.380176 units=m Spacing=1PH_1_YNNY wires=[2_ACSR 2_ACSR] faultrate=4.8606136e-05 repair=3.7
New line.227_2736517_2  Phases=1 Bus1=941_9001142.1 Bus2=195_1482856.1 Length=79.525835 units=m Spacing=1PH_1_YNNY wires=[2_ACSR 2_ACSR] faultrate=4.8606136e-05 repair=3.7
New line.227_2736537_6  Phases=1 Bus1=188_12030.1 Bus2=941_7275691.1 Length=31.821304 units=m Spacing=1PH_1_YNNY wires=[2_ACSR 2_ACSR] faultrate=4.8606136e-05 repair=3.7
New line.227_2736537_7  Phases=1 Bus1=941_7275691.1 Bus2=941_7275692.1 Length=3.343526 units=m Spacing=1PH_1_YNNY wires=[2_ACSR 2_ACSR] faultrate=4.8606136e-05 repair=3.7
New line.227_2736606_7  Phases=3 Bus1=941_8979176.1.2.3 Bus2=195_1467484.1.2.3 Length=74.321223 units=m Spacing=3PH_H_3_YYYY wires=[336_ACSR 336_ACSR 336_ACSR 3/0_ACSR] faultrate=4.8606136e-05 repair=3.7
New line.227_2736615_2  Phases=2 Bus1=188_12233.1.2 Bus2=189_3752210.1.2 Length=29.489204 units=m Spacing=2PH_H_2_YYNY wires=[2_ACSR 2_ACSR 1/0_ACSR] faultrate=4.8606136e-05 repair=3.7
New line.227_2736615_3  Phases=2 Bus1=189_3752210.1.2 Bus2=195_1467487.1.2 Length=18.088307 units=m Spacing=2PH_H_2_YYNY wires=[2_ACSR 2_ACSR 1/0_ACSR] faultrate=4.8606136e-05 repair=3.7
New line.227_2736633_1  Phases=1 Bus1=195_1489221.2 Bus2=195_1484542.2 Length=71.902568 units=m Spacing=1PH_1_NYNY wires=[2_ACSR 2_ACSR] faultrate=4.8606136e-05 repair=3.7
New line.227_2736638_7  Phases=2 Bus1=941_6309089.2.3 Bus2=189_3751811.2.3 Length=58.724285 units=m Spacing=2PH_H_2_NYYY wires=[2_ACSR 2_ACSR 2_ACSR] faultrate=4.8606136e-05 repair=3.7
New line.227_2736638_8  Phases=2 Bus1=189_3751811.2.3 Bus2=941_6309047.2.3 Length=76.313205 units=m Spacing=2PH_H_2_NYYY wires=[2_ACSR 2_ACSR 2_ACSR] faultrate=4.8606136e-05 repair=3.7
New line.227_2736638_9  Phases=2 Bus1=941_9000411.2.3 Bus2=941_6309047.2.3 Length=68.257686 units=m Spacing=2PH_H_2_NYYY wires=[2_ACSR 2_ACSR 2_ACSR] faultrate=4.8606136e-05 repair=3.7
New line.227_2736641_3  Phases=1 Bus1=941_6278374.2 Bus2=195_1461290.2 Length=64.948800 units=m Spacing=1PH_1_NYNY wires=[4_ACSR 2_ACSR] faultrate=4.8606136e-05 repair=3.7
New line.227_2736655_1  Phases=1 Bus1=195_1482794.3 Bus2=195_1460828.3 Length=75.002604 units=m Spacing=1PH_1_NNYY wires=[2_ACSR 2_ACSR] faultrate=4.8606136e-05 repair=3.7
New line.227_2736666_1  Phases=1 Bus1=204_676509.2 Bus2=195_1491407.2 Length=25.486400 units=m Spacing=1PH_1_NYNY wires=[2_ACSR 2_ACSR] faultrate=4.8606136e-05 repair=3.7
New line.227_2736683_2  Phases=1 Bus1=941_6278402.2 Bus2=204_668850.2 Length=7.782217 units=m Spacing=1PH_1_NYNY wires=[2_ACSR 2_ACSR] faultrate=4.8606136e-05 repair=3.7
New line.227_2736699_4  Phases=3 Bus1=195_1467316.1.2.3 Bus2=941_6309785.1.2.3 Length=10.078169 units=m Spacing=3PH_H_3_YYYY wires=[1/0_ACSR 1/0_ACSR 1/0_ACSR 1/0_ACSR] faultrate=4.8606136e-05 repair=3.7
New line.227_2736710_1  Phases=1 Bus1=195_1461263.3 Bus2=195_1461264.3 Length=28.654252 units=m Spacing=1PH_1_NNYY wires=[2_ACSR 2_ACSR] faultrate=4.8606136e-05 repair=3.7
New line.227_2736716_6  Phases=1 Bus1=941_6297338.2 Bus2=204_673745.2 Length=5.774853 units=m Spacing=1PH_1_NYNY wires=[2_ACSR 2_ACSR] faultrate=4.8606136e-05 repair=3.7
New line.227_2736733_3  Phases=1 Bus1=195_1472680.3 Bus2=195_1461301.3 Length=42.836262 units=m Spacing=1PH_1_NNYY wires=[4_ACSR 2_ACSR] faultrate=4.8606136e-05 repair=3.7
New line.227_2736754_1  Phases=3 Bus1=195_1470331.1.2.3 Bus2=188_12024.1.2.3 Length=65.141567 units=m Spacing=3PH_H_3_YYYY wires=[2_ACSR 2_ACSR 2_ACSR 2_ACSR] faultrate=4.8606136e-05 repair=3.7
New line.227_2736778_1  Phases=3 Bus1=195_1472682.1.2.3 Bus2=188_12046.1.2.3 Length=50.356466 units=m Spacing=3PH_H_3_YYYY wires=[336_ACSR 336_ACSR 336_ACSR 3/0_ACSR] faultrate=4.8606136e-05 repair=3.7
New line.227_2736781_2  Phases=3 Bus1=941_6309077.1.2.3 Bus2=941_6308991.1.2.3 Length=2.101706 units=m Spacing=3PH_H_3_YYYY wires=[336_ACSR 336_ACSR 336_ACSR 3/0_ACSR] faultrate=4.8606136e-05 repair=3.7
New line.227_2736811_1  Phases=3 Bus1=188_4118.1.2.3 Bus2=204_669706.1.2.3 Length=4.166690 units=m Spacing=3PH_H_3_YYYY wires=[2_ACSR 2_ACSR 2_ACSR 2_ACSR] faultrate=4.8606136e-05 repair=3.7
New line.227_2736813_1  Phases=1 Bus1=195_1496148.2 Bus2=195_1467261.2 Length=96.048085 units=m Spacing=1PH_1_NYNY wires=[4_ACSR 4_ACSR] faultrate=4.8606136e-05 repair=3.7
New line.227_2736851_2  Phases=3 Bus1=226_409561.1.2.3 Bus2=188_12248.1.2.3 Length=51.247957 units=m Spacing=3PH_H_3_YYYY wires=[336_ACSR 336_ACSR 336_ACSR 3/0_ACSR] faultrate=4.8606136e-05 repair=3.7
New line.227_2736852_1  Phases=1 Bus1=195_1475077.2 Bus2=195_1482073.2 Length=198.942057 units=m Spacing=1PH_1_NYNY wires=[2_ACSR 2_ACSR] faultrate=4.8606136e-05 repair=3.7
New line.227_2736852_2  Phases=1 Bus1=941_8995242.2 Bus2=195_1482073.2 Length=107.967347 units=m Spacing=1PH_1_NYNY wires=[2_ACSR 2_ACSR] faultrate=4.8606136e-05 repair=3.7
New line.227_2736857_1  Phases=1 Bus1=188_4157.2 Bus2=195_1484431.2 Length=75.437584 units=m Spacing=1PH_1_NYNY wires=[4_ACSR 4_ACSR] faultrate=4.8606136e-05 repair=3.7
New line.227_2736865_10  Phases=1 Bus1=189_2617893.1 Bus2=195_1493903.1 Length=61.066313 units=m Spacing=1PH_1_YNNY wires=[2_ACSR 2_ACSR] faultrate=4.8606136e-05 repair=3.7
New line.227_2736865_12  Phases=1 Bus1=204_668711.1 Bus2=941_6309094.1 Length=3.101212 units=m Spacing=1PH_1_YNNY wires=[2_ACSR 2_ACSR] faultrate=4.8606136e-05 repair=3.7
New line.227_2736865_13  Phases=1 Bus1=941_6309094.1 Bus2=189_2617893.1 Length=42.798717 units=m Spacing=1PH_1_YNNY wires=[2_ACSR 2_ACSR] faultrate=4.8606136e-05 repair=3.7
New line.227_2736865_2  Phases=1 Bus1=189_2617893.1 Bus2=195_1493903.1 Length=61.066313 units=m Spacing=1PH_1_YNNY wires=[2_ACSR 2_ACSR] faultrate=4.8606136e-05 repair=3.7
New line.227_2736865_3  Phases=1 Bus1=941_6359179.1 Bus2=189_2617893.1 Length=42.798717 units=m Spacing=1PH_1_YNNY wires=[2_ACSR 2_ACSR] faultrate=4.8606136e-05 repair=3.7
New line.227_2736895_3  Phases=1 Bus1=195_1492231.3 Bus2=195_1461235.3 Length=70.793355 units=m Spacing=1PH_1_NNYY wires=[2_ACSR 2_ACSR] faultrate=4.8606136e-05 repair=3.7
New line.227_2736896_4  Phases=1 Bus1=204_672760.2 Bus2=941_6298896.2 Length=47.638937 units=m Spacing=1PH_1_NYNY wires=[2_ACSR 2_ACSR] faultrate=4.8606136e-05 repair=3.7
New line.227_2736896_5  Phases=1 Bus1=941_6298896.2 Bus2=195_1496250.2 Length=53.434938 units=m Spacing=1PH_1_NYNY wires=[2_ACSR 2_ACSR] faultrate=4.8606136e-05 repair=3.7
New line.227_2736912_10  Phases=1 Bus1=189_3752089.2 Bus2=941_6403965.2 Length=37.932355 units=m Spacing=1PH_1_NYNY wires=[4_ACSR 2_ACSR] faultrate=4.8606136e-05 repair=3.7
New line.227_2736912_12  Phases=1 Bus1=204_1251684.2 Bus2=941_6403968.2 Length=5.874096 units=m Spacing=1PH_1_NYNY wires=[4_ACSR 2_ACSR] faultrate=4.8606136e-05 repair=3.7
New line.227_2736912_13  Phases=1 Bus1=941_6403968.2 Bus2=189_3752089.2 Length=12.583984 units=m Spacing=1PH_1_NYNY wires=[4_ACSR 2_ACSR] faultrate=4.8606136e-05 repair=3.7
New line.227_2736912_4  Phases=1 Bus1=941_6403965.2 Bus2=195_1470367.2 Length=31.882995 units=m Spacing=1PH_1_NYNY wires=[4_ACSR 2_ACSR] faultrate=4.8606136e-05 repair=3.7
New line.227_2736936_4  Phases=1 Bus1=204_674423.2 Bus2=195_1484422.2 Length=109.551775 units=m Spacing=1PH_1_NYNY wires=[2_ACSR 2_ACSR] faultrate=4.8606136e-05 repair=3.7
New line.227_2736936_7  Phases=1 Bus1=941_8995012.2 Bus2=195_1484422.2 Length=99.835842 units=m Spacing=1PH_1_NYNY wires=[2_ACSR 2_ACSR] faultrate=4.8606136e-05 repair=3.7
New line.227_2737056_3  Phases=1 Bus1=195_1461276.1 Bus2=195_1461273.1 Length=409.053224 units=m Spacing=1PH_1_YNNY wires=[6_CU 6_CU] faultrate=4.8606136e-05 repair=3.7
New line.227_2737056_7  Phases=1 Bus1=941_8995871.1 Bus2=195_1461273.1 Length=118.799787 units=m Spacing=1PH_1_YNNY wires=[6_CU 6_CU] faultrate=4.8606136e-05 repair=3.7
New line.227_2737071_1  Phases=1 Bus1=188_12226.3 Bus2=204_668505.3 Length=4.979086 units=m Spacing=1PH_1_NNYY wires=[2_ACSR 2_ACSR] faultrate=4.8606136e-05 repair=3.7
New line.227_2737081_3  Phases=1 Bus1=941_6278411.2 Bus2=195_1487615.2 Length=84.461292 units=m Spacing=1PH_1_NYNY wires=[4_ACSR 4_ACSR] faultrate=4.8606136e-05 repair=3.7
New line.227_2737220_3  Phases=3 Bus1=941_6298205.1.2.3 Bus2=195_1467621.1.2.3 Length=14.305403 units=m Spacing=3PH_H_3_YYYY wires=[4_ACSR 4_ACSR 4_ACSR 2_ACSR] faultrate=4.8606136e-05 repair=3.7
New line.227_2737222_1  Phases=1 Bus1=204_670250.2 Bus2=195_1484465.2 Length=61.861581 units=m Spacing=1PH_1_NYNY wires=[4_ACSR 2_ACSR] faultrate=4.8606136e-05 repair=3.7
New line.227_2737257_1  Phases=3 Bus1=188_12232.1.2.3 Bus2=195_1472821.1.2.3 Length=74.807340 units=m Spacing=3PH_H_3_YYYY wires=[2_ACSR 2_ACSR 2_ACSR 1/0_ACSR] faultrate=4.8606136e-05 repair=3.7
New line.227_2737272_1  Phases=1 Bus1=204_672470.1 Bus2=195_1467314.1 Length=47.491122 units=m Spacing=1PH_1_YNNY wires=[4_ACSR 4_ACSR] faultrate=4.8606136e-05 repair=3.7
New line.227_2737272_11  Phases=1 Bus1=941_8993918.1 Bus2=195_1467314.1 Length=47.491122 units=m Spacing=1PH_1_YNNY wires=[4_ACSR 4_ACSR] faultrate=4.8606136e-05 repair=3.7
New line.227_2737272_12  Phases=1 Bus1=204_672470.1 Bus2=941_8993918.1 Length=2.649948 units=m Spacing=1PH_1_YNNY wires=[4_ACSR 4_ACSR] faultrate=4.8606136e-05 repair=3.7
New line.227_2737315_2  Phases=1 Bus1=188_12188.3 Bus2=941_8977813.3 Length=71.116712 units=m Spacing=1PH_1_NNYY wires=[2_ACSR 2_ACSR] faultrate=4.8606136e-05 repair=3.7
New line.227_2737317_2  Phases=1 Bus1=195_1467298.3 Bus2=941_6278367.3 Length=40.149760 units=m Spacing=1PH_1_NNYY wires=[2_ACSR 1/0_ACSR] faultrate=4.8606136e-05 repair=3.7
New line.227_2737329_1  Phases=1 Bus1=195_1489907.2 Bus2=204_676422.2 Length=4.505579 units=m Spacing=1PH_1_NYNY wires=[2_ACSR 2_ACSR] faultrate=4.8606136e-05 repair=3.7
New line.227_2737426_3  Phases=1 Bus1=189_3737151.1 Bus2=195_1467304.1 Length=119.413278 units=m Spacing=1PH_1_YNNY wires=[4_ACSR 4_ACSR] faultrate=4.8606136e-05 repair=3.7
New line.227_2737477_3  Phases=1 Bus1=941_6309032.2 Bus2=195_1471091.2 Length=67.650160 units=m Spacing=1PH_1_NYNY wires=[2_ACSR 2_ACSR] faultrate=4.8606136e-05 repair=3.7
New line.227_2737500_7  Phases=3 Bus1=188_11790.1.2.3 Bus2=200_1045185_2S.1.2.3 Length=60.415160 units=m Spacing=3PH_H_3_YYYY wires=[336_ACSR 336_ACSR 336_ACSR 3/0_ACSR] faultrate=4.8606136e-05 repair=3.7
New line.227_2737503_2  Phases=1 Bus1=195_1467311.2 Bus2=941_8981117.2 Length=49.518705 units=m Spacing=1PH_1_NYNY wires=[2_ACSR 2_ACSR] faultrate=4.8606136e-05 repair=3.7
New line.227_2737524_3  Phases=1 Bus1=204_671520.1 Bus2=189_3735558.1 Length=45.320497 units=m Spacing=1PH_1_YNNY wires=[2_ACSR 2_ACSR] faultrate=4.8606136e-05 repair=3.7
New line.227_2737524_4  Phases=1 Bus1=189_3735558.1 Bus2=941_6278400.1 Length=4.938551 units=m Spacing=1PH_1_YNNY wires=[2_ACSR 2_ACSR] faultrate=4.8606136e-05 repair=3.7
New line.227_2737568_3  Phases=1 Bus1=204_668826.3 Bus2=941_6298830.3 Length=20.620119 units=m Spacing=1PH_1_NNYY wires=[2_ACSR 2_ACSR] faultrate=4.8606136e-05 repair=3.7
New line.227_2737574_3  Phases=2 Bus1=941_6278363.2.3 Bus2=195_1487619.2.3 Length=42.620086 units=m Spacing=2PH_H_2_NYYY wires=[4_ACSR 4_ACSR 2_ACSR] faultrate=4.8606136e-05 repair=3.7
New line.227_2737584_2  Phases=1 Bus1=204_669691.2 Bus2=189_3752126.2 Length=21.579300 units=m Spacing=1PH_1_NYNY wires=[6_CU 2_ACSR] faultrate=4.8606136e-05 repair=3.7
New line.227_2737584_3  Phases=1 Bus1=189_3752126.2 Bus2=195_1496200.2 Length=20.684716 units=m Spacing=1PH_1_NYNY wires=[6_CU 2_ACSR] faultrate=4.8606136e-05 repair=3.7
New line.227_2737585_5  Phases=1 Bus1=204_673740.1 Bus2=189_2641712.1 Length=23.311894 units=m Spacing=1PH_1_YNNY wires=[2_ACSR 2_ACSR] faultrate=4.8606136e-05 repair=3.7
New line.227_2737585_6  Phases=1 Bus1=189_2641712.1 Bus2=195_1467820.1 Length=77.460084 units=m Spacing=1PH_1_YNNY wires=[2_ACSR 2_ACSR] faultrate=4.8606136e-05 repair=3.7
New line.227_2737663_1  Phases=3 Bus1=204_673303.1.2.3 Bus2=189_2617545.1.2.3 Length=33.199620 units=m Spacing=3PH_H_3_YYYY wires=[2_ACSR 2_ACSR 2_ACSR 2_ACSR] faultrate=4.8606136e-05 repair=3.7
New line.227_2737663_2  Phases=3 Bus1=189_2617545.1.2.3 Bus2=195_1486779.1.2.3 Length=36.475317 units=m Spacing=3PH_H_3_YYYY wires=[2_ACSR 2_ACSR 2_ACSR 2_ACSR] faultrate=4.8606136e-05 repair=3.7
New line.227_2737664_2  Phases=1 Bus1=941_6309102.2 Bus2=941_6309032.2 Length=114.707991 units=m Spacing=1PH_1_NYNY wires=[2_ACSR 2_ACSR] faultrate=4.8606136e-05 repair=3.7
New line.227_2737693_3  Phases=1 Bus1=941_8981416.3 Bus2=195_1494606.3 Length=89.332951 units=m Spacing=1PH_1_NNYY wires=[2_ACSR 2_ACSR] faultrate=4.8606136e-05 repair=3.7
New line.227_2737723_1  Phases=1 Bus1=188_12046.2 Bus2=204_675856.2 Length=3.412817 units=m Spacing=1PH_1_NYNY wires=[2_ACSR 2_ACSR] faultrate=4.8606136e-05 repair=3.7
New line.227_2737798_5  Phases=3 Bus1=226_187184.1.2.3 Bus2=941_6430542.1.2.3 Length=3.045817 units=m Spacing=3PH_H_3_YYYY wires=[336_ACSR 336_ACSR 336_ACSR 4/0_ACSR] faultrate=4.8606136e-05 repair=3.7
New line.227_2737817_1  Phases=1 Bus1=195_1482026.2 Bus2=204_669854.2 Length=6.396445 units=m Spacing=1PH_1_NYNY wires=[2_ACSR 2_ACSR] faultrate=4.8606136e-05 repair=3.7
New line.227_2737824_5  Phases=2 Bus1=941_6337331.2.3 Bus2=195_1467000.2.3 Length=77.807737 units=m Spacing=2PH_H_2_NYYY wires=[2_ACSR 2_ACSR 2_ACSR] faultrate=4.8606136e-05 repair=3.7
New line.227_2737824_6  Phases=2 Bus1=189_3751812.2.3 Bus2=941_6337331.2.3 Length=63.142883 units=m Spacing=2PH_H_2_NYYY wires=[2_ACSR 2_ACSR 2_ACSR] faultrate=4.8606136e-05 repair=3.7
New line.227_2737824_7  Phases=2 Bus1=941_6309038.2.3 Bus2=189_3751812.2.3 Length=7.482006 units=m Spacing=2PH_H_2_NYYY wires=[2_ACSR 2_ACSR 2_ACSR] faultrate=4.8606136e-05 repair=3.7
New line.227_2737872_1  Phases=1 Bus1=195_1482028.2 Bus2=195_1475022.2 Length=89.628958 units=m Spacing=1PH_1_NYNY wires=[2_ACSR 2_ACSR] faultrate=4.8606136e-05 repair=3.7
New line.227_2737880_1  Phases=1 Bus1=188_12247.3 Bus2=204_676436.3 Length=4.377199 units=m Spacing=1PH_1_NNYY wires=[2_ACSR 2_ACSR] faultrate=4.8606136e-05 repair=3.7
New line.227_2737927_1  Phases=1 Bus1=195_1470339.2 Bus2=195_1472696.2 Length=76.313618 units=m Spacing=1PH_1_NYNY wires=[2_ACSR 2_ACSR] faultrate=4.8606136e-05 repair=3.7
New line.227_2737959_1  Phases=1 Bus1=195_1479832.1 Bus2=195_1461180.1 Length=107.096947 units=m Spacing=1PH_1_YNNY wires=[2_ACSR 2_ACSR] faultrate=4.8606136e-05 repair=3.7
New line.227_2737966_2  Phases=1 Bus1=195_1479710.2 Bus2=189_3738203.2 Length=98.654310 units=m Spacing=1PH_1_NYNY wires=[4_ACSR 4_ACSR] faultrate=4.8606136e-05 repair=3.7
New line.227_2737966_3  Phases=1 Bus1=189_3738203.2 Bus2=195_1493746.2 Length=77.136629 units=m Spacing=1PH_1_NYNY wires=[4_ACSR 4_ACSR] faultrate=4.8606136e-05 repair=3.7
New line.227_2737966_5  Phases=1 Bus1=941_8997571.2 Bus2=189_3738203.2 Length=4.327168 units=m Spacing=1PH_1_NYNY wires=[4_ACSR 4_ACSR] faultrate=4.8606136e-05 repair=3.7
New line.227_2738006_1  Phases=1 Bus1=195_1484415.1 Bus2=195_1477459.1 Length=41.892005 units=m Spacing=1PH_1_YNNY wires=[2_ACSR 2_ACSR] faultrate=4.8606136e-05 repair=3.7
New line.227_2738029_4  Phases=1 Bus1=195_1491317.2 Bus2=189_3739517.2 Length=10.017070 units=m Spacing=1PH_1_NYNY wires=[2_ACSR 2_ACSR] faultrate=4.8606136e-05 repair=3.7
New line.227_2738029_5  Phases=1 Bus1=189_3739517.2 Bus2=195_1482026.2 Length=69.709864 units=m Spacing=1PH_1_NYNY wires=[2_ACSR 2_ACSR] faultrate=4.8606136e-05 repair=3.7
New line.227_2738065_2  Phases=1 Bus1=941_6308979.1 Bus2=204_670962.1 Length=3.758667 units=m Spacing=1PH_1_YNNY wires=[2_ACSR 2_ACSR] faultrate=4.8606136e-05 repair=3.7
New line.227_2738081_2  Phases=1 Bus1=189_2617890.2 Bus2=195_1467819.2 Length=38.378744 units=m Spacing=1PH_1_NYNY wires=[2_ACSR 2_ACSR] faultrate=4.8606136e-05 repair=3.7
New line.227_2738081_3  Phases=1 Bus1=941_6309001.2 Bus2=189_2617890.2 Length=42.413252 units=m Spacing=1PH_1_NYNY wires=[2_ACSR 2_ACSR] faultrate=4.8606136e-05 repair=3.7
New line.227_2738085_2  Phases=1 Bus1=204_671090.2 Bus2=189_3738066.2 Length=43.137813 units=m Spacing=1PH_1_NYNY wires=[2_ACSR 2_ACSR] faultrate=4.8606136e-05 repair=3.7
New line.227_2738085_3  Phases=1 Bus1=189_3738066.2 Bus2=195_1467859.2 Length=5.437493 units=m Spacing=1PH_1_NYNY wires=[2_ACSR 2_ACSR] faultrate=4.8606136e-05 repair=3.7
New line.227_2738112_1  Phases=1 Bus1=195_1477416.1 Bus2=195_1491364.1 Length=50.619167 units=m Spacing=1PH_1_YNNY wires=[2_ACSR 2_ACSR] faultrate=4.8606136e-05 repair=3.7
New line.227_2738196_2  Phases=1 Bus1=941_6308954.1 Bus2=204_676626.1 Length=6.400269 units=m Spacing=1PH_1_YNNY wires=[2_ACSR 2_ACSR] faultrate=4.8606136e-05 repair=3.7
New line.227_2738203_1  Phases=1 Bus1=195_1468475.3 Bus2=189_3753153.3 Length=14.852151 units=m Spacing=1PH_1_NNYY wires=[4_ACSR 4_ACSR] faultrate=4.8606136e-05 repair=3.7
New line.227_2738203_2  Phases=1 Bus1=189_3753153.3 Bus2=195_1473224.3 Length=10.084827 units=m Spacing=1PH_1_NNYY wires=[4_ACSR 4_ACSR] faultrate=4.8606136e-05 repair=3.7
New line.227_2738207_3  Phases=1 Bus1=941_6308968.1 Bus2=189_3751781.1 Length=21.386415 units=m Spacing=1PH_1_YNNY wires=[2_ACSR 2_ACSR] faultrate=4.8606136e-05 repair=3.7
New line.227_2738207_4  Phases=1 Bus1=189_3751781.1 Bus2=941_6308985.1 Length=41.378624 units=m Spacing=1PH_1_YNNY wires=[2_ACSR 2_ACSR] faultrate=4.8606136e-05 repair=3.7
New line.227_2738269_2  Phases=3 Bus1=188_12026.1.2.3 Bus2=941_4670765.1.2.3 Length=57.633837 units=m Spacing=3PH_H_3_YYYY wires=[2_ACSR 2_ACSR 2_ACSR 2_ACSR] faultrate=4.8606136e-05 repair=3.7
New line.227_2738331_4  Phases=3 Bus1=941_3233634.1.2.3 Bus2=226_409508.1.2.3 Length=113.538071 units=m Spacing=3PH_H_3_YYYY wires=[1/0_ACSR 1/0_ACSR 1/0_ACSR 1/0_ACSR] faultrate=4.8606136e-05 repair=3.7
New line.227_2738331_6  Phases=3 Bus1=226_409508.1.2.3 Bus2=189_3742556.1.2.3 Length=46.821334 units=m Spacing=3PH_H_3_YYYY wires=[1/0_ACSR 1/0_ACSR 1/0_ACSR 1/0_ACSR] faultrate=4.8606136e-05 repair=3.7
New line.227_2738331_7  Phases=3 Bus1=189_3742556.1.2.3 Bus2=195_1473525.1.2.3 Length=75.532427 units=m Spacing=3PH_H_3_YYYY wires=[1/0_ACSR 1/0_ACSR 1/0_ACSR 1/0_ACSR] faultrate=4.8606136e-05 repair=3.7
New line.227_2738382_1  Phases=1 Bus1=204_671105.1 Bus2=195_1482176.1 Length=116.933995 units=m Spacing=1PH_1_YNNY wires=[2_ACSR 2_ACSR] faultrate=4.8606136e-05 repair=3.7
New line.227_2738385_1  Phases=1 Bus1=195_1484365.1 Bus2=195_1491318.1 Length=66.436450 units=m Spacing=1PH_1_YNNY wires=[4_ACSR 4_ACSR] faultrate=4.8606136e-05 repair=3.7
New line.227_2738386_2  Phases=3 Bus1=195_1485289.1.2.3 Bus2=941_6278364.1.2.3 Length=69.191138 units=m Spacing=3PH_H_3_YYYY wires=[336_ACSR 336_ACSR 336_ACSR 3/0_ACSR] faultrate=4.8606136e-05 repair=3.7
New line.227_2738408_2  Phases=1 Bus1=941_6295237.1 Bus2=204_676516.1 Length=7.369716 units=m Spacing=1PH_1_YNNY wires=[2_ACSR 2_ACSR] faultrate=4.8606136e-05 repair=3.7
New line.227_2738448_1  Phases=3 Bus1=204_670033.1.2.3 Bus2=195_1479734.1.2.3 Length=57.255041 units=m Spacing=3PH_H_3_YYYY wires=[2_ACSR 2_ACSR 2_ACSR 2_ACSR] faultrate=4.8606136e-05 repair=3.7
New line.227_2738458_4  Phases=1 Bus1=195_1475121.1 Bus2=941_6303825.1 Length=185.274573 units=m Spacing=1PH_1_YNNY wires=[4_ACSR 4_ACSR] faultrate=4.8606136e-05 repair=3.7
New line.227_2738458_6  Phases=1 Bus1=941_6303825.1 Bus2=189_3737924.1 Length=2.531511 units=m Spacing=1PH_1_YNNY wires=[4_ACSR 4_ACSR] faultrate=4.8606136e-05 repair=3.7
New line.227_2738458_7  Phases=1 Bus1=189_3737924.1 Bus2=195_1491417.1 Length=6.833816 units=m Spacing=1PH_1_YNNY wires=[4_ACSR 4_ACSR] faultrate=4.8606136e-05 repair=3.7
New line.227_2738458_9  Phases=1 Bus1=941_8997724.1 Bus2=941_8997725.1 Length=83.759511 units=m Spacing=1PH_1_YNNY wires=[4_ACSR 4_ACSR] faultrate=4.8606136e-05 repair=3.7
New line.227_2738475_1  Phases=1 Bus1=195_1475056.1 Bus2=195_1475054.1 Length=95.295654 units=m Spacing=1PH_1_YNNY wires=[4_ACSR 4_ACSR] faultrate=4.8606136e-05 repair=3.7
New line.227_2738507_5  Phases=1 Bus1=941_6681605.3 Bus2=204_879707.3 Length=10.307588 units=m Spacing=1PH_1_NNYY wires=[2_ACSR 2_ACSR] faultrate=4.8606136e-05 repair=3.7
New line.227_2738585_3  Phases=1 Bus1=941_6315064.3 Bus2=204_668703.3 Length=8.034533 units=m Spacing=1PH_1_NNYY wires=[2_ACSR 2_ACSR] faultrate=4.8606136e-05 repair=3.7
New line.227_2738632_7  Phases=1 Bus1=195_1467818.1 Bus2=195_1493902.1 Length=67.348331 units=m Spacing=1PH_1_YNNY wires=[2_ACSR 2_ACSR] faultrate=4.8606136e-05 repair=3.7
New line.227_2738633_1  Phases=1 Bus1=941_6309027.1 Bus2=941_6309069.1 Length=35.722266 units=m Spacing=1PH_1_YNNY wires=[4_ACSR 4_ACSR] faultrate=4.8606136e-05 repair=3.7
New line.227_2738633_5  Phases=1 Bus1=195_2312241.1 Bus2=941_8999064.1 Length=37.382128 units=m Spacing=1PH_1_YNNY wires=[4_ACSR 4_ACSR] faultrate=4.8606136e-05 repair=3.7
New line.227_2738633_6  Phases=1 Bus1=941_8999064.1 Bus2=941_6309069.1 Length=35.722266 units=m Spacing=1PH_1_YNNY wires=[4_ACSR 4_ACSR] faultrate=4.8606136e-05 repair=3.7
New line.227_2738692_1  Phases=1 Bus1=204_671990.3 Bus2=195_1482794.3 Length=71.099102 units=m Spacing=1PH_1_NNYY wires=[2_ACSR 2_ACSR] faultrate=4.8606136e-05 repair=3.7
New line.227_2738702_3  Phases=3 Bus1=226_409517.1.2.3 Bus2=941_6308988.1.2.3 Length=4.712372 units=m Spacing=3PH_H_3_YYYY wires=[336_ACSR 336_ACSR 336_ACSR 3/0_ACSR] faultrate=4.8606136e-05 repair=3.7
New line.227_2738702_4  Phases=3 Bus1=189_3741818.1.2.3 Bus2=226_409517.1.2.3 Length=58.007825 units=m Spacing=3PH_H_3_YYYY wires=[336_ACSR 336_ACSR 336_ACSR 3/0_ACSR] faultrate=4.8606136e-05 repair=3.7
New line.227_2738712_3  Phases=1 Bus1=195_1461256.3 Bus2=204_880977.3 Length=6.156081 units=m Spacing=1PH_1_NNYY wires=[2_ACSR 2_ACSR] faultrate=4.8606136e-05 repair=3.7
New line.227_2738719_7  Phases=3 Bus1=189_3752056.1.2.3 Bus2=941_6309929.1.2.3 Length=161.479241 units=m Spacing=3PH_H_3_YYYY wires=[2_ACSR 2_ACSR 2_ACSR 2_ACSR] faultrate=4.8606136e-05 repair=3.7
New line.227_2738719_8  Phases=3 Bus1=189_3752056.1.2.3 Bus2=941_8995539.1.2.3 Length=80.808893 units=m Spacing=3PH_H_3_YYYY wires=[2_ACSR 2_ACSR 2_ACSR 2_ACSR] faultrate=4.8606136e-05 repair=3.7
New line.227_2738739_3  Phases=1 Bus1=195_1467291.2 Bus2=941_6417780.2 Length=44.175113 units=m Spacing=1PH_1_NYNY wires=[2_ACSR 2_ACSR] faultrate=4.8606136e-05 repair=3.7
New line.227_2738739_4  Phases=1 Bus1=941_6417780.2 Bus2=195_1477415.2 Length=54.353528 units=m Spacing=1PH_1_NYNY wires=[2_ACSR 2_ACSR] faultrate=4.8606136e-05 repair=3.7
New line.227_2738784_1  Phases=1 Bus1=188_12550.1 Bus2=204_670990.1 Length=5.091444 units=m Spacing=1PH_1_YNNY wires=[4_ACSR 4_ACSR] faultrate=4.8606136e-05 repair=3.7
New line.227_2738798_1  Phases=3 Bus1=195_1479735.1.2.3 Bus2=188_12104.1.2.3 Length=72.269275 units=m Spacing=3PH_H_3_YYYY wires=[1/0_ACSR 1/0_ACSR 1/0_ACSR 1/0_ACSR] faultrate=4.8606136e-05 repair=3.7
New line.227_2738801_1  Phases=3 Bus1=941_6278415.1.2.3 Bus2=941_6278371.1.2.3 Length=36.747402 units=m Spacing=3PH_H_3_YYYY wires=[336_ACSR 336_ACSR 336_ACSR 3/0_ACSR] faultrate=4.8606136e-05 repair=3.7
New line.227_2738839_2  Phases=1 Bus1=204_1251688.3 Bus2=188_4211.3 Length=59.699610 units=m Spacing=1PH_1_NNYY wires=[2_ACSR 4_ACSR] faultrate=4.8606136e-05 repair=3.7
New line.227_2738874_1  Phases=1 Bus1=195_1467323.3 Bus2=195_1472683.3 Length=72.794055 units=m Spacing=1PH_1_NNYY wires=[2_ACSR 2_ACSR] faultrate=4.8606136e-05 repair=3.7
New line.227_2738891_1  Phases=1 Bus1=188_12101.3 Bus2=204_673584.3 Length=5.625347 units=m Spacing=1PH_1_NNYY wires=[4_ACSR 4_ACSR] faultrate=4.8606136e-05 repair=3.7
New line.227_2738894_6  Phases=2 Bus1=941_8982997.1.2 Bus2=941_5680209.1.2 Length=5.383696 units=m Spacing=2PH_H_2_YYNY wires=[2_ACSR 2_ACSR 1/0_ACSR] faultrate=4.8606136e-05 repair=3.7
New line.227_2738894_8  Phases=2 Bus1=941_5680209.1.2 Bus2=941_6446178.1.2 Length=25.796016 units=m Spacing=2PH_H_2_YYNY wires=[2_ACSR 2_ACSR 1/0_ACSR] faultrate=4.8606136e-05 repair=3.7
New line.227_2738894_9  Phases=2 Bus1=941_6446178.1.2 Bus2=941_6278368.1.2 Length=43.395200 units=m Spacing=2PH_H_2_YYNY wires=[2_ACSR 2_ACSR 1/0_ACSR] faultrate=4.8606136e-05 repair=3.7
New line.227_2738895_1  Phases=1 Bus1=204_668974.3 Bus2=195_1477364.3 Length=79.931446 units=m Spacing=1PH_1_NNYY wires=[4_ACSR 4_ACSR] faultrate=4.8606136e-05 repair=3.7
New line.227_2738895_5  Phases=1 Bus1=204_668974.3 Bus2=941_9001542.3 Length=4.861826 units=m Spacing=1PH_1_NNYY wires=[4_ACSR 4_ACSR] faultrate=4.8606136e-05 repair=3.7
New line.227_2738895_6  Phases=1 Bus1=941_9001542.3 Bus2=195_1477364.3 Length=75.069620 units=m Spacing=1PH_1_NNYY wires=[4_ACSR 4_ACSR] faultrate=4.8606136e-05 repair=3.7
New line.227_2738914_3  Phases=3 Bus1=189_3738177.1.2.3 Bus2=941_6279354.1.2.3 Length=5.039070 units=m Spacing=3PH_H_3_YYYY wires=[336_ACSR 336_ACSR 336_ACSR 1/0_ACSR] faultrate=4.8606136e-05 repair=3.7
New line.227_2738914_4  Phases=3 Bus1=195_1482143.1.2.3 Bus2=189_3738177.1.2.3 Length=51.551248 units=m Spacing=3PH_H_3_YYYY wires=[336_ACSR 336_ACSR 336_ACSR 1/0_ACSR] faultrate=4.8606136e-05 repair=3.7
New line.227_2738921_1  Phases=3 Bus1=188_12025.1.2.3 Bus2=195_1486775.1.2.3 Length=40.322461 units=m Spacing=3PH_H_3_YYYY wires=[2_ACSR 2_ACSR 2_ACSR 2_ACSR] faultrate=4.8606136e-05 repair=3.7
New line.227_2739013_2  Phases=3 Bus1=195_1494343.1.2.3 Bus2=941_8983006.1.2.3 Length=120.117528 units=m Spacing=3PH_H_3_YYYY wires=[336_ACSR 336_ACSR 336_ACSR 3/0_ACSR] faultrate=4.8606136e-05 repair=3.7
New line.227_2739018_2  Phases=1 Bus1=941_6295219.1 Bus2=204_670274.1 Length=7.548096 units=m Spacing=1PH_1_YNNY wires=[2_ACSR 2_ACSR] faultrate=4.8606136e-05 repair=3.7
New line.227_2739076_1  Phases=1 Bus1=195_1487608.2 Bus2=204_671727.2 Length=9.970595 units=m Spacing=1PH_1_NYNY wires=[4_ACSR 4_ACSR] faultrate=4.8606136e-05 repair=3.7
New line.227_2739084_1  Phases=1 Bus1=204_675113.3 Bus2=195_1475005.3 Length=90.280107 units=m Spacing=1PH_1_NNYY wires=[4_ACSR 4_ACSR] faultrate=4.8606136e-05 repair=3.7
New line.227_2739094_1  Phases=1 Bus1=195_1473509.1 Bus2=195_1487605.1 Length=69.174349 units=m Spacing=1PH_1_YNNY wires=[2_ACSR 2_ACSR] faultrate=4.8606136e-05 repair=3.7
New line.227_2739112_2  Phases=3 Bus1=941_8979975.1.2.3 Bus2=195_1477473.1.2.3 Length=42.157265 units=m Spacing=3PH_H_3_YYYY wires=[336_ACSR 336_ACSR 336_ACSR 3/0_ACSR] faultrate=4.8606136e-05 repair=3.7
New line.227_2739122_1  Phases=1 Bus1=195_1477428.2 Bus2=195_1467346.2 Length=33.624020 units=m Spacing=1PH_1_NYNY wires=[2_ACSR 2_ACSR] faultrate=4.8606136e-05 repair=3.7
New line.227_2739180_1  Phases=1 Bus1=204_668794.1 Bus2=195_1467347.1 Length=55.010914 units=m Spacing=1PH_1_YNNY wires=[2_ACSR 2_ACSR] faultrate=4.8606136e-05 repair=3.7
New line.227_2739222_1  Phases=1 Bus1=204_675915.2 Bus2=195_1467371.2 Length=51.506536 units=m Spacing=1PH_1_NYNY wires=[2_ACSR 2_ACSR] faultrate=4.8606136e-05 repair=3.7
New line.227_2739236_1  Phases=3 Bus1=188_11811.1.2.3 Bus2=188_11807.1.2.3 Length=119.594700 units=m Spacing=3PH_H_3_YYYY wires=[336_ACSR 336_ACSR 336_ACSR 3/0_ACSR] faultrate=4.8606136e-05 repair=3.7
New line.227_2739236_2  Phases=3 Bus1=941_9001472.1.2.3 Bus2=188_11807.1.2.3 Length=60.545216 units=m Spacing=3PH_H_3_YYYY wires=[336_ACSR 336_ACSR 336_ACSR 3/0_ACSR] faultrate=4.8606136e-05 repair=3.7
New line.227_2739268_5  Phases=1 Bus1=941_6309917.2 Bus2=204_670741.2 Length=3.421285 units=m Spacing=1PH_1_NYNY wires=[2_ACSR 2_ACSR] faultrate=4.8606136e-05 repair=3.7
New line.227_2739302_2  Phases=1 Bus1=941_8978998.3 Bus2=195_1480513.3 Length=59.527237 units=m Spacing=1PH_1_NNYY wires=[2_ACSR 2_ACSR] faultrate=4.8606136e-05 repair=3.7
New line.227_2739353_3  Phases=1 Bus1=941_3234708.1 Bus2=941_6308983.1 Length=101.027735 units=m Spacing=1PH_1_YNNY wires=[2_ACSR 2_ACSR] faultrate=4.8606136e-05 repair=3.7
New line.227_2739353_7  Phases=1 Bus1=941_9002594.1 Bus2=941_6308983.1 Length=101.027735 units=m Spacing=1PH_1_YNNY wires=[2_ACSR 2_ACSR] faultrate=4.8606136e-05 repair=3.7
New line.227_2739353_8  Phases=1 Bus1=195_1493884.1 Bus2=941_9002594.1 Length=3.318129 units=m Spacing=1PH_1_YNNY wires=[2_ACSR 2_ACSR] faultrate=4.8606136e-05 repair=3.7
New line.227_2739443_1  Phases=1 Bus1=188_12705.1 Bus2=195_1467824.1 Length=81.782280 units=m Spacing=1PH_1_YNNY wires=[4_ACSR 4_ACSR] faultrate=4.8606136e-05 repair=3.7
New line.227_2739467_4  Phases=3 Bus1=195_1477365.1.2.3 Bus2=189_3742549.1.2.3 Length=184.251774 units=m Spacing=3PH_H_3_YYYY wires=[1/0_ACSR 1/0_ACSR 1/0_ACSR 1/0_ACSR] faultrate=4.8606136e-05 repair=3.7
New line.227_2739467_5  Phases=3 Bus1=189_3742549.1.2.3 Bus2=195_1467661.1.2.3 Length=111.396186 units=m Spacing=3PH_H_3_YYYY wires=[1/0_ACSR 1/0_ACSR 1/0_ACSR 1/0_ACSR] faultrate=4.8606136e-05 repair=3.7
New line.227_2739467_6  Phases=3 Bus1=189_3742549.1.2.3 Bus2=941_8999517.1.2.3 Length=81.609097 units=m Spacing=3PH_H_3_YYYY wires=[1/0_ACSR 1/0_ACSR 1/0_ACSR 1/0_ACSR] faultrate=4.8606136e-05 repair=3.7
New line.227_2739473_1  Phases=3 Bus1=195_1475105.1.2.3 Bus2=195_1489152.1.2.3 Length=65.019739 units=m Spacing=3PH_H_3_YYYY wires=[336_ACSR 336_ACSR 336_ACSR 3/0_ACSR] faultrate=4.8606136e-05 repair=3.7
New line.227_2739479_1  Phases=3 Bus1=195_1467363.1.2.3 Bus2=189_2617563.1.2.3 Length=43.105443 units=m Spacing=3PH_H_3_YYYY wires=[1/0_ACSR 1/0_ACSR 1/0_ACSR 2_ACSR] faultrate=4.8606136e-05 repair=3.7
New line.227_2739479_2  Phases=3 Bus1=189_2617563.1.2.3 Bus2=188_12093.1.2.3 Length=35.327666 units=m Spacing=3PH_H_3_YYYY wires=[1/0_ACSR 1/0_ACSR 1/0_ACSR 2_ACSR] faultrate=4.8606136e-05 repair=3.7
...
!New line.229_1087111_2  Phases=3 Bus1=941_6355740.1.2.3 Bus2=200_1163644_2S.1.2.3 Length=8.213948 units=m Spacing=BUSS_3_YYYY wires=[BUSS BUSS BUSS BUSS] faultrate=4.8606136e-05 repair=3.7
!New line.229_1087112_3  Phases=3 Bus1=941_6355742.1.2.3 Bus2=200_1163644.1.2.3 Length=8.481339 units=m Spacing=BUSS_3_YYYY wires=[BUSS BUSS BUSS BUSS] faultrate=4.8606136e-05 repair=3.7
New line.229_1087429_2  Phases=3 Bus1=941_6357611.1.2.3 Bus2=200_1163849_2S.1.2.3 Length=8.213705 units=m Spacing=BUSS_3_YYYY wires=[BUSS BUSS BUSS BUSS] faultrate=4.8606136e-05 repair=3.7
New line.229_1087430_3  Phases=3 Bus1=941_6357613.1.2.3 Bus2=200_1163849.1.2.3 Length=8.481818 units=m Spacing=BUSS_3_YYYY wires=[BUSS BUSS BUSS BUSS] faultrate=4.8606136e-05 repair=3.7
New line.229_1087681_4  Phases=3 Bus1=941_6358695.1.2.3 Bus2=200_1163939_2S.1.2.3 Length=8.213946 units=m Spacing=BUSS_3_YYYY wires=[BUSS BUSS BUSS BUSS] faultrate=4.8606136e-05 repair=3.7
New line.229_1087682_3  Phases=3 Bus1=941_6358699.1.2.3 Bus2=200_1163939.1.2.3 Length=8.482294 units=m Spacing=BUSS_3_YYYY wires=[BUSS BUSS BUSS BUSS] faultrate=4.8606136e-05 repair=3.7
!New line.229_1088401_2  Phases=3 Bus1=941_6361641.1.2.3 Bus2=200_1164227_2S.1.2.3 Length=8.213566 units=m Spacing=BUSS_3_YYYY wires=[BUSS BUSS BUSS BUSS] faultrate=4.8606136e-05 repair=3.7
!New line.229_1088402_3  Phases=3 Bus1=941_6361643.1.2.3 Bus2=200_1164227.1.2.3 Length=8.482294 units=m Spacing=BUSS_3_YYYY wires=[BUSS BUSS BUSS BUSS] faultrate=4.8606136e-05 repair=3.7
New line.229_1089617_2  Phases=3 Bus1=941_6366976.1.2.3 Bus2=200_1164659_2S.1.2.3 Length=8.213671 units=m Spacing=BUSS_3_YYYY wires=[BUSS BUSS BUSS BUSS] faultrate=4.8606136e-05 repair=3.7
New line.229_1089618_3  Phases=3 Bus1=941_6367314.1.2.3 Bus2=200_1164659.1.2.3 Length=8.482356 units=m Spacing=BUSS_3_YYYY wires=[BUSS BUSS BUSS BUSS] faultrate=4.8606136e-05 repair=3.7
New line.229_1107009_2  Phases=3 Bus1=941_6430821.1.2.3 Bus2=200_1168243_2S.1.2.3 Length=8.166044 units=m Spacing=BUSS_3_YYYY wires=[BUSS BUSS BUSS BUSS] faultrate=4.8606136e-05 repair=3.7
New line.229_1107010_3  Phases=3 Bus1=941_6430823.1.2.3 Bus2=200_1168243.1.2.3 Length=8.630703 units=m Spacing=BUSS_3_YYYY wires=[BUSS BUSS BUSS BUSS] faultrate=4.8606136e-05 repair=3.7
New line.229_1132347_13  Phases=3 Bus1=941_6847657.1.2.3 Bus2=200_1181807.1.2.3 Length=8.505750 units=m Spacing=BUSS_3_YYYY wires=[BUSS BUSS BUSS BUSS] faultrate=4.8606136e-05 repair=3.7
New line.229_1160443_2  Phases=3 Bus1=941_6706763.1.2.3 Bus2=200_1203042_2S.1.2.3 Length=8.213741 units=m Spacing=BUSS_3_YYYY wires=[BUSS BUSS BUSS BUSS] faultrate=4.8606136e-05 repair=3.7
New line.229_1160444_3  Phases=3 Bus1=941_6706765.1.2.3 Bus2=200_1203042.1.2.3 Length=8.481911 units=m Spacing=BUSS_3_YYYY wires=[BUSS BUSS BUSS BUSS] faultrate=4.8606136e-05 repair=3.7
New line.229_1161826_1  Phases=1 Bus1=195_2394757.2 Bus2=941_6713975.2 Length=3.823454 units=m Spacing=BUSS_1_NYNY wires=[BUSS BUSS] faultrate=4.8606136e-05 repair=3.7
New line.229_1162503_2  Phases=3 Bus1=941_6717011.1.2.3 Bus2=200_1204422_2S.1.2.3 Length=8.060138 units=m Spacing=BUSS_3_YYYY wires=[BUSS BUSS BUSS BUSS] faultrate=4.8606136e-05 repair=3.7
New line.229_1162504_3  Phases=3 Bus1=941_6717013.1.2.3 Bus2=200_1204422.1.2.3 Length=8.481925 units=m Spacing=BUSS_3_YYYY wires=[BUSS BUSS BUSS BUSS] faultrate=4.8606136e-05 repair=3.7
!New line.229_1172259_2  Phases=3 Bus1=941_6768845.1.2.3 Bus2=200_1211270_2S.1.2.3 Length=8.147164 units=m Spacing=BUSS_3_YYYY wires=[BUSS BUSS BUSS BUSS] faultrate=4.8606136e-05 repair=3.7
!New line.229_1172260_3  Phases=3 Bus1=941_6768847.1.2.3 Bus2=200_1211270.1.2.3 Length=8.531450 units=m Spacing=BUSS_3_YYYY wires=[BUSS BUSS BUSS BUSS] faultrate=4.8606136e-05 repair=3.7
New line.229_1173252_1  Phases=3 Bus1=941_6773017.1.2.3 Bus2=200_1211888.1.2.3 Length=8.481886 units=m Spacing=BUSS_3_YYYY wires=[BUSS BUSS BUSS BUSS] faultrate=4.8606136e-05 repair=3.7
New line.229_1173257_2  Phases=3 Bus1=941_6773121.1.2.3 Bus2=200_1211916_2S.1.2.3 Length=7.846904 units=m Spacing=BUSS_3_YYYY wires=[BUSS BUSS BUSS BUSS] faultrate=4.8606136e-05 repair=3.7
New line.229_1173258_3  Phases=3 Bus1=941_6773123.1.2.3 Bus2=200_1211916.1.2.3 Length=8.482079 units=m Spacing=BUSS_3_YYYY wires=[BUSS BUSS BUSS BUSS] faultrate=4.8606136e-05 repair=3.7
New line.229_1178913_2  Phases=3 Bus1=941_6798901.1.2.3 Bus2=S2195_2S.1.2.3 Length=8.406653 units=m Spacing=BUSS_3_YYYY wires=[BUSS BUSS BUSS BUSS] faultrate=4.8606136e-05 repair=3.7
New line.229_1178914_3  Phases=3 Bus1=941_6798903.1.2.3 Bus2=200_1216259_2S.1.2.3 Length=8.286202 units=m Spacing=BUSS_3_YYYY wires=[BUSS BUSS BUSS BUSS] faultrate=4.8606136e-05 repair=3.7
New line.229_1190321_1  Phases=1 Bus1=195_2433794.2 Bus2=941_6853032.2 Length=2.474593 units=m Spacing=BUSS_1_NYNY wires=[BUSS BUSS] faultrate=4.8606136e-05 repair=3.7
New line.229_1194307_1  Phases=1 Bus1=195_2438817.1 Bus2=941_6871699.1 Length=3.623565 units=m Spacing=BUSS_1_YNNY wires=[BUSS BUSS] faultrate=4.8606136e-05 repair=3.7
New line.229_1197265_1  Phases=1 Bus1=195_2443413.3 Bus2=941_6891186.3 Length=2.958682 units=m Spacing=BUSS_1_NNYY wires=[BUSS BUSS] faultrate=4.8606136e-05 repair=3.7
New line.229_1197281_1  Phases=1 Bus1=195_2441953.3 Bus2=941_6891097.3 Length=3.094410 units=m Spacing=BUSS_1_NNYY wires=[BUSS BUSS] faultrate=4.8606136e-05 repair=3.7
New line.229_1197442_3  Phases=3 Bus1=941_6889597.1.2.3 Bus2=200_1229927_2S.1.2.3 Length=8.482054 units=m Spacing=BUSS_3_YYYY wires=[BUSS BUSS BUSS BUSS] faultrate=4.8606136e-05 repair=3.7
New line.229_1199810_1  Phases=1 Bus1=195_2447138.1 Bus2=941_6913993.1 Length=3.031547 units=m Spacing=BUSS_1_YNNY wires=[BUSS BUSS] faultrate=4.8606136e-05 repair=3.7
New line.229_1203889_1  Phases=1 Bus1=195_2448593.2 Bus2=941_6962278.2 Length=3.202525 units=m Spacing=BUSS_1_NYNY wires=[BUSS BUSS] faultrate=4.8606136e-05 repair=3.7
New line.229_1204961_1  Phases=1 Bus1=195_2453857.1 Bus2=941_6969332.1 Length=2.949964 units=m Spacing=BUSS_1_YNNY wires=[BUSS BUSS] faultrate=4.8606136e-05 repair=3.7
New line.229_1260981_2  Phases=1 Bus1=195_2008818.1 Bus2=208_5142.1 Length=19.295209 units=m Spacing=BUSS_1_YNNY wires=[BUSS BUSS] faultrate=4.8606136e-05 repair=3.7
New line.229_1261089_2  Phases=1 Bus1=195_1461250.2 Bus2=208_5186.2 Length=14.197398 units=m Spacing=BUSS_1_NYNY wires=[BUSS BUSS] faultrate=4.8606136e-05 repair=3.7
New line.229_1261665_2  Phases=1 Bus1=195_1461270.1 Bus2=208_5409.1 Length=9.220063 units=m Spacing=BUSS_1_YNNY wires=[BUSS BUSS] faultrate=4.8606136e-05 repair=3.7
New line.229_1308387_2  Phases=1 Bus1=195_1492298.2 Bus2=208_6563.2 Length=18.195000 units=m Spacing=BUSS_1_NYNY wires=[BUSS BUSS] faultrate=4.8606136e-05 repair=3.7
New line.229_1325340_2  Phases=1 Bus1=195_1479791.2 Bus2=208_7004.2 Length=11.511229 units=m Spacing=BUSS_1_NYNY wires=[BUSS BUSS] faultrate=4.8606136e-05 repair=3.7
New line.229_1330497_1  Phases=1 Bus1=195_1496300.1 Bus2=208_5481.1 Length=35.241482 units=m Spacing=BUSS_1_YNNY wires=[BUSS BUSS] faultrate=4.8606136e-05 repair=3.7
New line.229_1356354_1  Phases=1 Bus1=195_1461270.1 Bus2=208_5409.1 Length=9.220063 units=m Spacing=BUSS_1_YNNY wires=[BUSS BUSS] faultrate=4.8606136e-05 repair=3.7
New line.229_660482_2  Phases=3 Bus1=941_4453464.1.2.3 Bus2=200_815683_2S.1.2.3 Length=8.213491 units=m Spacing=BUSS_3_YYYY wires=[BUSS BUSS BUSS BUSS] faultrate=4.8606136e-05 repair=3.7
New line.229_660483_3  Phases=3 Bus1=941_4453466.1.2.3 Bus2=200_815683.1.2.3 Length=8.481128 units=m Spacing=BUSS_3_YYYY wires=[BUSS BUSS BUSS BUSS] faultrate=4.8606136e-05 repair=3.7
New line.229_660484_2  Phases=3 Bus1=941_4453467.1.2.3 Bus2=200_815686_2S.1.2.3 Length=8.577023 units=m Spacing=BUSS_3_YYYY wires=[BUSS BUSS BUSS BUSS] faultrate=4.8606136e-05 repair=3.7
New line.229_660485_3  Phases=3 Bus1=941_4453469.1.2.3 Bus2=200_815686.1.2.3 Length=8.787379 units=m Spacing=BUSS_3_YYYY wires=[BUSS BUSS BUSS BUSS] faultrate=4.8606136e-05 repair=3.7
New line.229_660486_1  Phases=3 Bus1=941_4453471.1.2.3 Bus2=200_815689_2S.1.2.3 Length=7.956346 units=m Spacing=BUSS_3_YYYY wires=[BUSS BUSS BUSS BUSS] faultrate=4.8606136e-05 repair=3.7
New line.229_660487_1  Phases=3 Bus1=941_4453761.1.2.3 Bus2=200_815689.1.2.3 Length=8.519843 units=m Spacing=BUSS_3_YYYY wires=[BUSS BUSS BUSS BUSS] faultrate=4.8606136e-05 repair=3.7
New line.229_737745_10  Phases=1 Bus1=941_5271664.3 Bus2=941_4954967.3 Length=3.409065 units=m Spacing=BUSS_1_NNYY wires=[BUSS BUSS] faultrate=4.8606136e-05 repair=3.7
!New line.229_941786_1  Phases=3 Bus1=941_5999656.1.2.3 Bus2=200_1092048_2S.1.2.3 Length=8.241514 units=m Spacing=BUSS_3_YYYY wires=[BUSS BUSS BUSS BUSS] faultrate=4.8606136e-05 repair=3.7
!New line.229_941789_1  Phases=3 Bus1=941_5999660.1.2.3 Bus2=200_1092048.1.2.3 Length=8.443541 units=m Spacing=BUSS_3_YYYY wires=[BUSS BUSS BUSS BUSS] faultrate=4.8606136e-05 repair=3.7
New line.9  Phases=1 Bus1=8_1306801.1 Bus2=9_1306801.1 Length=71.401145 units=m Spacing=1PH_1_YNNY wires=[4_ACSR 4_ACSR] faultrate=4.8606136e-05 repair=3.7
New line.S1801  Phases=1 Bus1=188_12704.1 Bus2=S1801.1 Length=37.966787 units=m Spacing=1PH_1_YNNY wires=[2_ACSR 2_ACSR] faultrate=4.8606136e-05 repair=3.7
New line.S2196  Phases=1 Bus1=941_9002778.1 Bus2=S2196.1 Length=140.137681 units=m Spacing=1PH_1_YNNY wires=[2_ACSR 2_ACSR] faultrate=4.8606136e-05 repair=3.7
New line.S2197  Phases=1 Bus1=204_673181.2 Bus2=S2197.2 Length=116.310805 units=m Spacing=1PH_1_NYNY wires=[6_CU 6_CU] faultrate=4.8606136e-05 repair=3.7
New line.S2198  Phases=3 Bus1=941_4777623.1.2.3 Bus2=S2198.1.2.3 Length=79.635632 units=m Spacing=3PH_H_3_YYYY wires=[1/0_ACSR 1/0_ACSR 1/0_ACSR 4/0_ACSR] faultrate=4.8606136e-05 repair=3.7
New line.S2200  Phases=3 Bus1=941_8998572.1.2.3 Bus2=S2200.1.2.3 Length=64.517014 units=m Spacing=3PH_H_3_YYYY wires=[1/0_ACSR 1/0_ACSR 1/0_ACSR 1/0_ACSR] faultrate=4.8606136e-05 repair=3.7
New line.S2201  Phases=3 Bus1=S2200.1.2.3 Bus2=S2201.1.2.3 Length=247.422737 units=m Spacing=3PH_H_3_YYYY wires=[1/0_ACSR 1/0_ACSR 1/0_ACSR 1/0_ACSR] faultrate=4.8606136e-05 repair=3.7

! overhead lines
New line.1010000009394605  Phases=1 Bus1=204_1269905.2 Bus2=195_2316370.2 Length=0.001000 units=m LineCode=DEFAULT_1_line faultrate=4.8606136e-05 repair=3.7
New line.227_2754918_6  Phases=3 Bus1=226_408686.1.2.3 Bus2=941_3220121.1.2.3 Length=0.001000 units=m LineCode=DEFAULT_3_line faultrate=4.8606136e-05 repair=3.7
New line.227_4166906_3  Phases=3 Bus1=941_6309989.1.2.3 Bus2=226_409544.1.2.3 Length=0.001000 units=m LineCode=DEFAULT_3_line faultrate=4.8606136e-05 repair=3.7
New line.5557000000147890  Phases=1 Bus1=204_671523.2 Bus2=195_1467361.2 Length=0.001000 units=m LineCode=DEFAULT_1_line faultrate=4.8606136e-05 repair=3.7
New line.5557100002979712  Phases=1 Bus1=204_668218.2 Bus2=195_1479608.2 Length=0.001000 units=m LineCode=DEFAULT_1_line faultrate=4.8606136e-05 repair=3.7

! underground lines
New line.228_1553936_1  Phases=1 Bus1=195_1470541.3 Bus2=195_1482275.3 Length=82.006319 units=m LineCode=1P_1/0_AXN_DB_1 faultrate=0.0 repair=0.0
New line.228_1555260_1  Phases=1 Bus1=941_3234741.3 Bus2=195_1467127.3 Length=25.113095 units=m LineCode=1P_1/0_AXN_DB_1 faultrate=0.0 repair=0.0
New line.228_1555385_2  Phases=1 Bus1=195_1484633.2 Bus2=200_614843.2 Length=61.850030 units=m LineCode=1P_1/0_AXN_DB_1 faultrate=0.0 repair=0.0
New line.228_1555486_3  Phases=1 Bus1=200_614913.2 Bus2=195_1479921.2 Length=72.494438 units=m LineCode=1P_1/0_AXN_DB_1 faultrate=0.0 repair=0.0
New line.228_1555545_1  Phases=1 Bus1=195_1467766.3 Bus2=195_1477525.3 Length=105.680631 units=m LineCode=1P_1/0_AXN_DB_1 faultrate=0.0 repair=0.0
New line.228_1555638_1  Phases=1 Bus1=195_1496391.3 Bus2=195_1491587.3 Length=83.746847 units=m LineCode=1P_1/0_AXN_DB_1 faultrate=0.0 repair=0.0
New line.228_1555652_1  Phases=1 Bus1=195_1477396.3 Bus2=195_1484398.3 Length=124.838758 units=m LineCode=1P_1/0_AXN_DB_1 faultrate=0.0 repair=0.0
New line.228_1555686_1  Phases=1 Bus1=195_1484575.1 Bus2=195_1475219.1 Length=183.243015 units=m LineCode=1P_1/0_AXN_DB_1 faultrate=0.0 repair=0.0
New line.228_1555789_1  Phases=1 Bus1=195_1475176.3 Bus2=195_1472898.3 Length=92.745011 units=m LineCode=1P_1/0_AXN_DB_1 faultrate=0.0 repair=0.0
New line.228_1555847_1  Phases=1 Bus1=221_456709.1 Bus2=195_1496381.1 Length=25.232540 units=m LineCode=1P_1/0_AXN_DB_1 faultrate=0.0 repair=0.0
New line.228_1555847_4  Phases=1 Bus1=200_613645.1 Bus2=221_456709.1 Length=3.210073 units=m LineCode=1P_1/0_AXN_DB_1 faultrate=0.0 repair=0.0
New line.228_1556049_1  Phases=1 Bus1=195_1482229.1 Bus2=195_1467950.1 Length=183.603426 units=m LineCode=1P_1/0_AXN_DB_1 faultrate=0.0 repair=0.0
New line.228_1556264_1  Phases=1 Bus1=195_1485272.1 Bus2=195_1461209.1 Length=122.247501 units=m LineCode=1P_1/0_AXN_DB_1 faultrate=0.0 repair=0.0
New line.228_1556399_1  Phases=1 Bus1=195_1468127.3 Bus2=941_3220101.3 Length=36.128446 units=m LineCode=1P_1/0_AXN_DB_1 faultrate=0.0 repair=0.0
New line.228_1556933_1  Phases=1 Bus1=195_1481994.2 Bus2=189_2617926.2 Length=13.495561 units=m LineCode=1P_1/0_AXN_DB_1 faultrate=0.0 repair=0.0
New line.228_1556933_3  Phases=1 Bus1=189_2617926.2 Bus2=200_614861.2 Length=18.943011 units=m LineCode=1P_1/0_AXN_DB_1 faultrate=0.0 repair=0.0
New line.228_1557086_1  Phases=1 Bus1=195_1480524.3 Bus2=195_1461240.3 Length=82.054605 units=m LineCode=1P_1/0_AXN_DB_1 faultrate=0.0 repair=0.0
New line.228_1557330_1  Phases=1 Bus1=195_1491342.3 Bus2=195_1486761.3 Length=284.986277 units=m LineCode=1P_1/0_AXN_DB_1 faultrate=0.0 repair=0.0
New line.228_1557339_1  Phases=1 Bus1=195_1468790.3 Bus2=195_1472731.3 Length=29.154391 units=m LineCode=1P_1/0_AXN_DB_1 faultrate=0.0 repair=0.0
New line.228_1557458_2  Phases=1 Bus1=221_456538.2 Bus2=195_1467340.2 Length=45.886408 units=m LineCode=1P_1/0_AXN_DB_1 faultrate=0.0 repair=0.0
New line.228_1557686_1  Phases=1 Bus1=941_3220101.3 Bus2=195_1466907.3 Length=11.020787 units=m LineCode=1P_1/0_AXN_DB_1 faultrate=0.0 repair=0.0
New line.228_1557749_1  Phases=1 Bus1=195_1486974.1 Bus2=195_1468128.1 Length=152.832394 units=m LineCode=1P_1/0_AXN_DB_1 faultrate=0.0 repair=0.0
New line.228_1558000_1  Phases=1 Bus1=221_456623.1 Bus2=189_2616898.1 Length=136.642205 units=m LineCode=1P_1/0_AXN_DB_1 faultrate=0.0 repair=0.0
New line.228_1558000_2  Phases=1 Bus1=189_2616898.1 Bus2=195_1484573.1 Length=326.393682 units=m LineCode=1P_1/0_AXN_DB_1 faultrate=0.0 repair=0.0
New line.228_1558000_5  Phases=1 Bus1=204_671563.1 Bus2=221_925205.1 Length=5.041943 units=m LineCode=1P_1/0_AXN_DB_1 faultrate=0.0 repair=0.0
New line.228_1558000_6  Phases=1 Bus1=221_925205.1 Bus2=189_2616898.1 Length=135.895771 units=m LineCode=1P_1/0_AXN_DB_1 faultrate=0.0 repair=0.0
New line.228_1558272_1  Phases=1 Bus1=195_1489041.2 Bus2=195_1481994.2 Length=25.671789 units=m LineCode=1P_1/0_AXN_DB_1 faultrate=0.0 repair=0.0
New line.228_1558281_2  Phases=3 Bus1=941_3202242.1.2.3 Bus2=200_1230433_2S.1.2.3 Length=31.827836 units=m LineCode=3P_1/0_AXN_DB_3 faultrate=0.0 repair=0.0
New line.228_1558304_1  Phases=1 Bus1=221_453731.2 Bus2=941_3226183.2 Length=61.622954 units=m LineCode=1P_1/0_AXN_DB_1 faultrate=0.0 repair=0.0
New line.228_1558600_1  Phases=1 Bus1=195_1491226.2 Bus2=195_1496022.2 Length=31.401849 units=m LineCode=1P_1/0_AXN_DB_1 faultrate=0.0 repair=0.0
New line.228_1558601_1  Phases=1 Bus1=941_3226183.2 Bus2=195_1492299.2 Length=34.706822 units=m LineCode=1P_1/0_AXN_DB_1 faultrate=0.0 repair=0.0
New line.228_1558842_1  Phases=1 Bus1=195_1482228.2 Bus2=195_1479869.2 Length=239.190441 units=m LineCode=1P_1/0_AXN_DB_1 faultrate=0.0 repair=0.0
New line.228_1558965_1  Phases=3 Bus1=221_453651.1.2.3 Bus2=941_3226185.1.2.3 Length=28.690583 units=m LineCode=3P_1/0_AXN_DB_3 faultrate=0.0 repair=0.0
New line.228_1559016_1  Phases=1 Bus1=941_3233633.2 Bus2=195_1482183.2 Length=28.653462 units=m LineCode=1P_1/0_AXN_DB_1 faultrate=0.0 repair=0.0
New line.228_1559038_1  Phases=3 Bus1=200_615013.1.2.3 Bus2=195_1468853.1.2.3 Length=355.872834 units=m LineCode=3P_1/0_AXN_DB_3 faultrate=0.0 repair=0.0
New line.228_1559091_1  Phases=1 Bus1=195_1487677.1 Bus2=195_1461462.1 Length=122.529633 units=m LineCode=1P_1/0_AXN_DB_1 faultrate=0.0 repair=0.0
New line.228_1559361_1  Phases=1 Bus1=195_1489305.1 Bus2=195_1472891.1 Length=162.265371 units=m LineCode=1P_1/0_AXN_DB_1 faultrate=0.0 repair=0.0
New line.228_1559408_1  Phases=1 Bus1=195_1461313.3 Bus2=195_1475827.3 Length=86.943488 units=m LineCode=1P_1/0_AXN_DB_1 faultrate=0.0 repair=0.0
New line.228_1559451_1  Phases=1 Bus1=195_1475222.2 Bus2=195_1491522.2 Length=154.621747 units=m LineCode=1P_1/0_AXN_DB_1 faultrate=0.0 repair=0.0
New line.228_1559476_5  Phases=1 Bus1=221_456182.2 Bus2=941_4892805.2 Length=6.757157 units=m LineCode=1P_1/0_AXNJ_DB_1 faultrate=0.0 repair=0.0
New line.228_1559646_1  Phases=1 Bus1=195_1466732.2 Bus2=189_2617137.2 Length=94.660482 units=m LineCode=1P_1/0_AXNJ_DB_1 faultrate=0.0 repair=0.0
New line.228_1559646_2  Phases=1 Bus1=189_2617137.2 Bus2=195_1491226.2 Length=95.633853 units=m LineCode=1P_1/0_AXNJ_DB_1 faultrate=0.0 repair=0.0
New line.228_1559737_3  Phases=3 Bus1=189_3751784.1.2.3 Bus2=195_1467945.1.2.3 Length=795.465543 units=m LineCode=3P_1/0_AXN_DB_3 faultrate=0.0 repair=0.0
New line.228_1559737_4  Phases=3 Bus1=221_456630.1.2.3 Bus2=941_6606219.1.2.3 Length=77.586179 units=m LineCode=3P_1/0_AXN_DB_3 faultrate=0.0 repair=0.0
New line.228_1559737_5  Phases=3 Bus1=941_6606219.1.2.3 Bus2=189_3751784.1.2.3 Length=51.224507 units=m LineCode=3P_1/0_AXN_DB_3 faultrate=0.0 repair=0.0
New line.228_1559737_8  Phases=3 Bus1=204_668068.1.2.3 Bus2=221_925204.1.2.3 Length=2.969160 units=m LineCode=3P_1/0_AXN_DB_3 faultrate=0.0 repair=0.0
New line.228_1559737_9  Phases=3 Bus1=221_925204.1.2.3 Bus2=941_6606219.1.2.3 Length=76.754234 units=m LineCode=3P_1/0_AXN_DB_3 faultrate=0.0 repair=0.0
New line.228_1559811_2  Phases=1 Bus1=200_614913.2 Bus2=195_1489309.2 Length=123.236676 units=m LineCode=1P_1/0_AXN_DB_1 faultrate=0.0 repair=0.0
New line.228_1559899_1  Phases=3 Bus1=941_3233633.1.2.3 Bus2=195_1477624.1.2.3 Length=87.182832 units=m LineCode=3P_1/0_AXN_DB_3 faultrate=0.0 repair=0.0
New line.228_1560035_1  Phases=1 Bus1=195_1481988.3 Bus2=195_1472601.3 Length=115.881468 units=m LineCode=1P_1/0_AXN_DB_1 faultrate=0.0 repair=0.0
New line.228_1560126_1  Phases=1 Bus1=195_1472841.3 Bus2=200_612343_2S.3 Length=10.446422 units=m LineCode=1P_1/0_AXN_DB_1 faultrate=0.0 repair=0.0
New line.228_1560221_1  Phases=1 Bus1=221_453732.2 Bus2=941_3226182.2 Length=237.012923 units=m LineCode=1P_1/0_AXN_DB_1 faultrate=0.0 repair=0.0
New line.228_1560261_1  Phases=1 Bus1=195_1491293.2 Bus2=195_1472605.2 Length=117.218443 units=m LineCode=1P_1/0_AXN_DB_1 faultrate=0.0 repair=0.0
New line.228_1560324_1  Phases=1 Bus1=221_456498.3 Bus2=941_3234742.3 Length=193.054173 units=m LineCode=1P_1/0_AXN_DB_1 faultrate=0.0 repair=0.0
New line.228_1560324_2  Phases=1 Bus1=204_674591.3 Bus2=221_925201.3 Length=4.783043 units=m LineCode=1P_1/0_AXN_DB_1 faultrate=0.0 repair=0.0
New line.228_1560324_3  Phases=1 Bus1=221_925201.3 Bus2=941_3234742.3 Length=192.373671 units=m LineCode=1P_1/0_AXN_DB_1 faultrate=0.0 repair=0.0
New line.228_1560383_1  Phases=1 Bus1=195_1472891.1 Bus2=195_1482272.1 Length=123.112608 units=m LineCode=1P_1/0_AXN_DB_1 faultrate=0.0 repair=0.0
New line.228_1560763_1  Phases=1 Bus1=195_1482977.2 Bus2=195_1461471.2 Length=52.627848 units=m LineCode=1P_1/0_AXN_DB_1 faultrate=0.0 repair=0.0
New line.228_1561022_1  Phases=1 Bus1=195_1486741.3 Bus2=195_1493714.3 Length=24.371844 units=m LineCode=1P_1/0_AXN_DB_1 faultrate=0.0 repair=0.0
New line.228_1561161_1  Phases=1 Bus1=195_1468162.2 Bus2=195_1484633.2 Length=196.610206 units=m LineCode=1P_1/0_AXN_DB_1 faultrate=0.0 repair=0.0
New line.228_1561215_1  Phases=1 Bus1=195_1477572.3 Bus2=195_1467947.3 Length=184.883865 units=m LineCode=1P_1/0_AXN_DB_1 faultrate=0.0 repair=0.0
New line.228_1561571_1  Phases=1 Bus1=195_1479869.2 Bus2=200_612342.2 Length=145.073223 units=m LineCode=1P_1/0_AXN_DB_1 faultrate=0.0 repair=0.0
New line.228_1561804_1  Phases=1 Bus1=195_1477573.2 Bus2=195_1467949.2 Length=54.704357 units=m LineCode=1P_1/0_AXN_DB_1 faultrate=0.0 repair=0.0
New line.228_1562034_1  Phases=1 Bus1=195_1477525.3 Bus2=195_1479808.3 Length=23.493378 units=m LineCode=1P_1/0_AXN_DB_1 faultrate=0.0 repair=0.0
New line.228_1562485_3  Phases=3 Bus1=941_3226185.1.2.3 Bus2=195_1461229.1.2.3 Length=81.572437 units=m LineCode=3P_1/0_AXN_DB_3 faultrate=0.0 repair=0.0
New line.228_1562689_2  Phases=1 Bus1=195_1496390.1 Bus2=200_614901.1 Length=136.365795 units=m LineCode=1P_1/0_AXN_DB_1 faultrate=0.0 repair=0.0
New line.228_1562689_5  Phases=3 Bus1=195_1496390.1.2.3 Bus2=195_1484633.1.2.3 Length=92.261032 units=m LineCode=3P_1/0_AXN_DB_3 faultrate=0.0 repair=0.0
New line.228_1562744_1  Phases=1 Bus1=941_3233633.3 Bus2=200_614993.3 Length=689.937326 units=m LineCode=1P_1/0_AXN_DB_1 faultrate=0.0 repair=0.0
New line.228_1562744_2  Phases=1 Bus1=200_614993.3 Bus2=941_3233628.3 Length=0.187095 units=m LineCode=1P_1/0_AXN_DB_1 faultrate=0.0 repair=0.0
New line.228_1562799_1  Phases=1 Bus1=195_1475219.1 Bus2=200_612341_2S.1 Length=9.262678 units=m LineCode=1P_1/0_AXN_DB_1 faultrate=0.0 repair=0.0
New line.228_1562833_1  Phases=3 Bus1=195_1468165.1.2.3 Bus2=195_1472897.1.2.3 Length=138.359263 units=m LineCode=3P_1/0_AXN_DB_3 faultrate=0.0 repair=0.0
New line.228_1562889_2  Phases=1 Bus1=941_6632558.3 Bus2=195_1480524.3 Length=472.664826 units=m LineCode=1P_1/0_AXN_DB_1 faultrate=0.0 repair=0.0
New line.228_1563024_1  Phases=1 Bus1=941_3234738.3 Bus2=941_3234741.3 Length=206.598026 units=m LineCode=1P_1/0_AXN_DB_1 faultrate=0.0 repair=0.0
New line.228_1563214_1  Phases=3 Bus1=941_3214743.1.2.3 Bus2=195_1489916.1.2.3 Length=166.483116 units=m LineCode=3P_1/0_AXN_DB_3 faultrate=0.0 repair=0.0
New line.228_1563328_1  Phases=1 Bus1=941_3226180.2 Bus2=195_1461469.2 Length=30.298397 units=m LineCode=1P_1/0_AXN_DB_1 faultrate=0.0 repair=0.0
New line.228_1563590_1  Phases=1 Bus1=195_1461477.2 Bus2=195_1489970.2 Length=171.280725 units=m LineCode=1P_1/0_AXN_DB_1 faultrate=0.0 repair=0.0
New line.228_1563685_1  Phases=1 Bus1=221_456593.2 Bus2=195_1486910.2 Length=36.938563 units=m LineCode=1P_1/0_AXN_DB_1 faultrate=0.0 repair=0.0
New line.228_1563777_1  Phases=1 Bus1=941_3233633.2 Bus2=195_1468162.2 Length=458.997676 units=m LineCode=1P_1/0_AXN_DB_1 faultrate=0.0 repair=0.0
New line.228_1563821_1  Phases=1 Bus1=195_1467949.2 Bus2=200_612342_2S.2 Length=6.754643 units=m LineCode=1P_1/0_AXN_DB_1 faultrate=0.0 repair=0.0
New line.228_1563932_1  Phases=3 Bus1=188_4121.1.2.3 Bus2=221_453651.1.2.3 Length=8.676611 units=m LineCode=3P_1/0_AXN_DB_3 faultrate=0.0 repair=0.0
New line.228_1564100_1  Phases=1 Bus1=195_1489970.2 Bus2=195_1461470.2 Length=30.326213 units=m LineCode=1P_1/0_AXN_DB_1 faultrate=0.0 repair=0.0
New line.228_1564376_1  Phases=1 Bus1=941_3226181.2 Bus2=195_1489969.2 Length=21.709267 units=m LineCode=1P_1/0_AXN_DB_1 faultrate=0.0 repair=0.0
New line.228_1564411_2  Phases=1 Bus1=189_2617925.2 Bus2=195_1491293.2 Length=64.120690 units=m LineCode=1P_1/0_AXN_DB_1 faultrate=0.0 repair=0.0
New line.228_1564411_4  Phases=1 Bus1=221_456292.2 Bus2=189_2617925.2 Length=61.503175 units=m LineCode=1P_1/0_AXN_DB_1 faultrate=0.0 repair=0.0
New line.228_1564411_5  Phases=1 Bus1=941_6736005.2 Bus2=189_2617925.2 Length=61.503175 units=m LineCode=1P_1/0_AXN_DB_1 faultrate=0.0 repair=0.0
New line.228_1564556_1  Phases=1 Bus1=941_3220100.3 Bus2=195_1494595.3 Length=117.553453 units=m LineCode=1P_1/0_AXN_DB_1 faultrate=0.0 repair=0.0
...