WDeixler_Southern_Model_Code_SSPB/loads.dss
! converted from CYME 5.04 .sxst-file with OpenDSS_SFC.py (version: 01.00.012, last update: 03/22/2017)

New Load.100-101629_5557000000389590_0  phases=1 bus1=195_1467027.1 kv=7.96743371482 kw=5.706667 pf=0.9 class=2 NumCust=0.333333! 3-phase loadA
New Load.100-101629_5557000000389590_1  phases=1 bus1=195_1467027.2 kv=7.96743371482 kw=5.706667 pf=0.9 class=2 NumCust=0.333333! 3-phase loadB
New Load.100-101629_5557000000389590_2  phases=1 bus1=195_1467027.3 kv=7.96743371482 kw=5.706667 pf=0.9 class=2 NumCust=0.333333! 3-phase loadC
New Load.1500P114925_5557000000730251_0  phases=1 bus1=195_1494668.1 kv=7.96743371482 kw=118.800000 pf=0.9 class=2 NumCust=0.333333! 3-phase loadA
New Load.1500P114925_5557000000730251_1  phases=1 bus1=195_1494668.2 kv=7.96743371482 kw=118.800000 pf=0.9 class=2 NumCust=0.333333! 3-phase loadB
New Load.1500P114925_5557000000730251_2  phases=1 bus1=195_1494668.3 kv=7.96743371482 kw=118.800000 pf=0.9 class=2 NumCust=0.333333! 3-phase loadC
New Load.300P118030_5557100003061998_0  phases=1 bus1=195_1470286.1 kv=7.96743371482 kw=33.396000 pf=0.9 class=2 NumCust=0.333333! 3-phase loadA
New Load.300P118030_5557100003061998_1  phases=1 bus1=195_1470286.2 kv=7.96743371482 kw=33.396000 pf=0.9 class=2 NumCust=0.333333! 3-phase loadB
New Load.300P118030_5557100003061998_2  phases=1 bus1=195_1470286.3 kv=7.96743371482 kw=33.396000 pf=0.9 class=2 NumCust=0.333333! 3-phase loadC
New Load.500P119136_5557000000826201_0  phases=1 bus1=195_1461482.1 kv=7.96743371482 kw=23.052000 pf=0.9 class=2 NumCust=0.333333! 3-phase loadA
New Load.500P119136_5557000000826201_1  phases=1 bus1=195_1461482.2 kv=7.96743371482 kw=23.052000 pf=0.9 class=2 NumCust=0.333333! 3-phase loadB
New Load.500P119136_5557000000826201_2  phases=1 bus1=195_1461482.3 kv=7.96743371482 kw=23.052000 pf=0.9 class=2 NumCust=0.333333! 3-phase loadC
New Load.500P121346_5557100003175655_0  phases=1 bus1=195_1484537.1 kv=7.96743371482 kw=122.808000 pf=0.9 class=2 NumCust=0.333333! 3-phase loadA
New Load.500P121346_5557100003175655_1  phases=1 bus1=195_1484537.2 kv=7.96743371482 kw=122.808000 pf=0.9 class=2 NumCust=0.333333! 3-phase loadB
New Load.500P121346_5557100003175655_2  phases=1 bus1=195_1484537.3 kv=7.96743371482 kw=122.808000 pf=0.9 class=2 NumCust=0.333333! 3-phase loadC
New Load.5557000000639724_0  phases=1 bus1=195_1496150.1 kv=7.96743371482 kw=34.666667 pf=0.93 class=2 NumCust=0.333333! 3-phase loadA
New Load.5557000000639724_1  phases=1 bus1=195_1496150.2 kv=7.96743371482 kw=34.666667 pf=0.93 class=2 NumCust=0.333333! 3-phase loadB
New Load.5557000000639724_2  phases=1 bus1=195_1496150.3 kv=7.96743371482 kw=34.666667 pf=0.93 class=2 NumCust=0.333333! 3-phase loadC
New Load.5557100003061998_0  phases=1 bus1=195_1470286.3 kv=7.96743371482 kw=76.666667 pf=0.93 class=2 NumCust=0.333333! 3-phase loadC
New Load.5557100003061998_1  phases=1 bus1=195_1470286.1 kv=7.96743371482 kw=76.666667 pf=0.93 class=2 NumCust=0.333333! 3-phase loadA
New Load.5557100003061998_2  phases=1 bus1=195_1470286.2 kv=7.96743371482 kw=76.666667 pf=0.93 class=2 NumCust=0.333333! 3-phase loadB
New Load.750P101650_5557000000345280_0  phases=1 bus1=195_1489916.1 kv=7.96743371482 kw=41.440000 pf=0.9 class=2 NumCust=0.666667! 3-phase loadA
New Load.750P101650_5557000000345280_1  phases=1 bus1=195_1489916.2 kv=7.96743371482 kw=41.440000 pf=0.9 class=2 NumCust=0.666667! 3-phase loadB
New Load.750P101650_5557000000345280_2  phases=1 bus1=195_1489916.3 kv=7.96743371482 kw=41.440000 pf=0.9 class=2 NumCust=0.666667! 3-phase loadC