WDeixler_Southern_Model_Code_SSPB/Distloads.dss

New	load.lo1	Bus1=189_3739545.1	Phases=1 kv=7.967433714828 kw=1.45 pf=0.93 class=2 NumCust=0.333333
New	load.lo227_2736023_10	Bus1=941_6309792.1.2.3	Phases=3 kv=13.8 kw=4.35 pf=0.93 class=2 NumCust=0.333333
New	load.lo227_2736023_12	Bus1=941_6315057.1.2.3	Phases=3 kv=13.8 kw=4.35 pf=0.93 class=2 NumCust=0.333333
New	load.lo227_2736023_17	Bus1=226_409546.1.2.3	Phases=3 kv=13.8 kw=4.35 pf=0.93 class=2 NumCust=0.333333
New	load.lo227_2736023_6	Bus1=941_6309792.1.2.3	Phases=3 kv=13.8 kw=4.35 pf=0.93 class=2 NumCust=0.333333
New	load.lo227_2736081_1	Bus1=188_12024.3	Phases=1 kv=7.967433714828 kw=1.45 pf=0.93 class=2 NumCust=0.333333
New	load.lo227_2736132_3	Bus1=188_12918.2	Phases=1 kv=7.967433714828 kw=1.45 pf=0.93 class=2 NumCust=0.333333
New	load.lo227_2736132_5	Bus1=941_6417492.2	Phases=1 kv=7.967433714828 kw=1.45 pf=0.93 class=2 NumCust=0.333333
New	load.lo227_2736135_2	Bus1=195_1482195.1.2.3	Phases=3 kv=13.8 kw=4.35 pf=0.93 class=2 NumCust=0.333333
New	load.lo227_2736158_10	Bus1=189_3751892.1.2.3	Phases=3 kv=13.8 kw=4.35 pf=0.93 class=2 NumCust=0.333333
New	load.lo227_2736158_11	Bus1=189_3751891.1.2.3	Phases=3 kv=13.8 kw=4.35 pf=0.93 class=2 NumCust=0.333333
New	load.lo227_2736158_5	Bus1=188_12739.1.2.3	Phases=3 kv=13.8 kw=4.35 pf=0.93 class=2 NumCust=0.333333
New	load.lo227_2736158_6	Bus1=941_6430828.1.2.3	Phases=3 kv=13.8 kw=4.35 pf=0.93 class=2 NumCust=0.333333
New	load.lo227_2736158_9	Bus1=189_3735066.1.2.3	Phases=3 kv=13.8 kw=4.35 pf=0.93 class=2 NumCust=0.333333
New	load.lo227_2736206_1	Bus1=195_1467482.1.2.3	Phases=3 kv=13.8 kw=4.35 pf=0.93 class=2 NumCust=0.333333
New	load.lo227_2736226_2	Bus1=941_6308997.2.3	Phases=2 kv=13.8 kw=2.90 pf=0.93 class=2 NumCust=0.333333
New	load.lo227_2736228_5	Bus1=189_2629571.1.2.3	Phases=3 kv=13.8 kw=4.35 pf=0.93 class=2 NumCust=0.333333
New	load.lo227_2736228_6	Bus1=941_9052479.1.2.3	Phases=3 kv=13.8 kw=4.35 pf=0.93 class=2 NumCust=0.333333
New	load.lo227_2736245_2	Bus1=941_6309113.1.2.3	Phases=3 kv=13.8 kw=4.35 pf=0.93 class=2 NumCust=0.333333
New	load.lo227_2736245_3	Bus1=941_6309113.1.2.3	Phases=3 kv=13.8 kw=4.35 pf=0.93 class=2 NumCust=0.333333
New	load.lo227_2736288_3	Bus1=195_1473511.1.2.3	Phases=3 kv=13.8 kw=4.35 pf=0.93 class=2 NumCust=0.333333
New	load.lo227_2736288_4	Bus1=195_1473511.1.2.3	Phases=3 kv=13.8 kw=4.35 pf=0.93 class=2 NumCust=0.333333
New	load.lo227_2736288_5	Bus1=941_6962275.1.2.3	Phases=3 kv=13.8 kw=4.35 pf=0.93 class=2 NumCust=0.333333
New	load.lo227_2736309_2	Bus1=941_8983174.1.2.3	Phases=3 kv=13.8 kw=4.35 pf=0.93 class=2 NumCust=0.333333
New	load.lo227_2736316_2	Bus1=941_6356829.1	Phases=1 kv=7.967433714828 kw=1.45 pf=0.93 class=2 NumCust=0.333333
New	load.lo227_2736316_6	Bus1=941_6356829.1	Phases=1 kv=7.967433714828 kw=1.45 pf=0.93 class=2 NumCust=0.333333
New	load.lo227_2736316_7	Bus1=941_6356829.1	Phases=1 kv=7.967433714828 kw=1.45 pf=0.93 class=2 NumCust=0.333333
New	load.lo227_2736369_1	Bus1=195_1493749.1	Phases=1 kv=7.967433714828 kw=1.45 pf=0.93 class=2 NumCust=0.333333
New	load.lo227_2736413_2	Bus1=941_6309011.2	Phases=1 kv=7.967433714828 kw=1.45 pf=0.93 class=2 NumCust=0.333333
New	load.lo227_2736413_4	Bus1=941_8998836.2	Phases=1 kv=7.967433714828 kw=1.45 pf=0.93 class=2 NumCust=0.333333
New	load.lo227_2736477_4	Bus1=941_6314923.1	Phases=1 kv=7.967433714828 kw=1.45 pf=0.93 class=2 NumCust=0.333333
New	load.lo227_2736478_1	Bus1=195_1467504.1	Phases=1 kv=7.967433714828 kw=1.45 pf=0.93 class=2 NumCust=0.333333
New	load.lo227_2736478_2	Bus1=189_2617127.1	Phases=1 kv=7.967433714828 kw=1.45 pf=0.93 class=2 NumCust=0.333333
New	load.lo227_2736487_1	Bus1=195_1475060.1.2.3	Phases=3 kv=13.8 kw=4.35 pf=0.93 class=2 NumCust=0.333333
New	load.lo227_2736497_1	Bus1=204_669285.1	Phases=1 kv=7.967433714828 kw=1.45 pf=0.93 class=2 NumCust=0.333333
New	load.lo227_2736514_2	Bus1=941_6308985.1	Phases=1 kv=7.967433714828 kw=1.45 pf=0.93 class=2 NumCust=0.333333
New	load.lo227_2736517_1	Bus1=188_12702.1	Phases=1 kv=7.967433714828 kw=1.45 pf=0.93 class=2 NumCust=0.333333
New	load.lo227_2736517_2	Bus1=941_9001142.1	Phases=1 kv=7.967433714828 kw=1.45 pf=0.93 class=2 NumCust=0.333333
New	load.lo227_2736537_6	Bus1=188_12030.1	Phases=1 kv=7.967433714828 kw=1.45 pf=0.93 class=2 NumCust=0.333333
New	load.lo227_2736537_7	Bus1=941_7275691.1	Phases=1 kv=7.967433714828 kw=1.45 pf=0.93 class=2 NumCust=0.333333
New	load.lo227_2736606_7	Bus1=941_8979176.1.2.3	Phases=3 kv=13.8 kw=4.35 pf=0.93 class=2 NumCust=0.333333
New	load.lo227_2736615_2	Bus1=188_12233.1.2	Phases=2 kv=13.8 kw=2.90 pf=0.93 class=2 NumCust=0.333333
New	load.lo227_2736615_3	Bus1=189_3752210.1.2	Phases=2 kv=13.8 kw=2.90 pf=0.93 class=2 NumCust=0.333333
New	load.lo227_2736633_1	Bus1=195_1489221.2	Phases=1 kv=7.967433714828 kw=1.45 pf=0.93 class=2 NumCust=0.333333
New	load.lo227_2736638_7	Bus1=941_6309089.2.3	Phases=2 kv=13.8 kw=2.90 pf=0.93 class=2 NumCust=0.333333
New	load.lo227_2736638_8	Bus1=189_3751811.2.3	Phases=2 kv=13.8 kw=2.90 pf=0.93 class=2 NumCust=0.333333
New	load.lo227_2736638_9	Bus1=941_9000411.2.3	Phases=2 kv=13.8 kw=2.90 pf=0.93 class=2 NumCust=0.333333
New	load.lo227_2736641_3	Bus1=941_6278374.2	Phases=1 kv=7.967433714828 kw=1.45 pf=0.93 class=2 NumCust=0.333333
New	load.lo227_2736655_1	Bus1=195_1482794.3	Phases=1 kv=7.967433714828 kw=1.45 pf=0.93 class=2 NumCust=0.333333
New	load.lo227_2736666_1	Bus1=204_676509.2	Phases=1 kv=7.967433714828 kw=1.45 pf=0.93 class=2 NumCust=0.333333
New	load.lo227_2736683_2	Bus1=941_6278402.2	Phases=1 kv=7.967433714828 kw=1.45 pf=0.93 class=2 NumCust=0.333333
New	load.lo227_2736699_4	Bus1=195_1467316.1.2.3	Phases=3 kv=13.8 kw=4.35 pf=0.93 class=2 NumCust=0.333333
New	load.lo227_2736710_1	Bus1=195_1461263.3	Phases=1 kv=7.967433714828 kw=1.45 pf=0.93 class=2 NumCust=0.333333
New	load.lo227_2736716_6	Bus1=941_6297338.2	Phases=1 kv=7.967433714828 kw=1.45 pf=0.93 class=2 NumCust=0.333333
New	load.lo227_2736733_3	Bus1=195_1472680.3	Phases=1 kv=7.967433714828 kw=1.45 pf=0.93 class=2 NumCust=0.333333
New	load.lo227_2736754_1	Bus1=195_1470331.1.2.3	Phases=3 kv=13.8 kw=4.35 pf=0.93 class=2 NumCust=0.333333
New	load.lo227_2736778_1	Bus1=195_1472682.1.2.3	Phases=3 kv=13.8 kw=4.35 pf=0.93 class=2 NumCust=0.333333
New	load.lo227_2736781_2	Bus1=941_6309077.1.2.3	Phases=3 kv=13.8 kw=4.35 pf=0.93 class=2 NumCust=0.333333
New	load.lo227_2736811_1	Bus1=188_4118.1.2.3	Phases=3 kv=13.8 kw=4.35 pf=0.93 class=2 NumCust=0.333333
New	load.lo227_2736813_1	Bus1=195_1496148.2	Phases=1 kv=7.967433714828 kw=1.45 pf=0.93 class=2 NumCust=0.333333
New	load.lo227_2736851_2	Bus1=226_409561.1.2.3	Phases=3 kv=13.8 kw=4.35 pf=0.93 class=2 NumCust=0.333333
New	load.lo227_2736852_1	Bus1=195_1475077.2	Phases=1 kv=7.967433714828 kw=1.45 pf=0.93 class=2 NumCust=0.333333
New	load.lo227_2736852_2	Bus1=941_8995242.2	Phases=1 kv=7.967433714828 kw=1.45 pf=0.93 class=2 NumCust=0.333333
New	load.lo227_2736857_1	Bus1=188_4157.2	Phases=1 kv=7.967433714828 kw=1.45 pf=0.93 class=2 NumCust=0.333333
New	load.lo227_2736865_10	Bus1=189_2617893.1	Phases=1 kv=7.967433714828 kw=1.45 pf=0.93 class=2 NumCust=0.333333
New	load.lo227_2736865_12	Bus1=204_668711.1	Phases=1 kv=7.967433714828 kw=1.45 pf=0.93 class=2 NumCust=0.333333
New	load.lo227_2736865_13	Bus1=941_6309094.1	Phases=1 kv=7.967433714828 kw=1.45 pf=0.93 class=2 NumCust=0.333333
New	load.lo227_2736865_2	Bus1=189_2617893.1	Phases=1 kv=7.967433714828 kw=1.45 pf=0.93 class=2 NumCust=0.333333
New	load.lo227_2736865_3	Bus1=941_6359179.1	Phases=1 kv=7.967433714828 kw=1.45 pf=0.93 class=2 NumCust=0.333333
New	load.lo227_2736895_3	Bus1=195_1492231.3	Phases=1 kv=7.967433714828 kw=1.45 pf=0.93 class=2 NumCust=0.333333
New	load.lo227_2736896_4	Bus1=204_672760.2	Phases=1 kv=7.967433714828 kw=1.45 pf=0.93 class=2 NumCust=0.333333
New	load.lo227_2736896_5	Bus1=941_6298896.2	Phases=1 kv=7.967433714828 kw=1.45 pf=0.93 class=2 NumCust=0.333333
New	load.lo227_2736912_10	Bus1=189_3752089.2	Phases=1 kv=7.967433714828 kw=1.45 pf=0.93 class=2 NumCust=0.333333
New	load.lo227_2736912_12	Bus1=204_1251684.2	Phases=1 kv=7.967433714828 kw=1.45 pf=0.93 class=2 NumCust=0.333333
New	load.lo227_2736912_13	Bus1=941_6403968.2	Phases=1 kv=7.967433714828 kw=1.45 pf=0.93 class=2 NumCust=0.333333
New	load.lo227_2736912_4	Bus1=941_6403965.2	Phases=1 kv=7.967433714828 kw=1.45 pf=0.93 class=2 NumCust=0.333333
New	load.lo227_2736936_4	Bus1=204_674423.2	Phases=1 kv=7.967433714828 kw=1.45 pf=0.93 class=2 NumCust=0.333333
New	load.lo227_2736936_7	Bus1=941_8995012.2	Phases=1 kv=7.967433714828 kw=1.45 pf=0.93 class=2 NumCust=0.333333
New	load.lo227_2737056_3	Bus1=195_1461276.1	Phases=1 kv=7.967433714828 kw=1.45 pf=0.93 class=2 NumCust=0.333333
New	load.lo227_2737056_7	Bus1=941_8995871.1	Phases=1 kv=7.967433714828 kw=1.45 pf=0.93 class=2 NumCust=0.333333
New	load.lo227_2737071_1	Bus1=188_12226.3	Phases=1 kv=7.967433714828 kw=1.45 pf=0.93 class=2 NumCust=0.333333
New	load.lo227_2737081_3	Bus1=941_6278411.2	Phases=1 kv=7.967433714828 kw=1.45 pf=0.93 class=2 NumCust=0.333333
New	load.lo227_2737220_3	Bus1=941_6298205.1.2.3	Phases=3 kv=13.8 kw=4.35 pf=0.93 class=2 NumCust=0.333333
New	load.lo227_2737222_1	Bus1=204_670250.2	Phases=1 kv=7.967433714828 kw=1.45 pf=0.93 class=2 NumCust=0.333333
New	load.lo227_2737257_1	Bus1=188_12232.1.2.3	Phases=3 kv=13.8 kw=4.35 pf=0.93 class=2 NumCust=0.333333
New	load.lo227_2737272_1	Bus1=204_672470.1	Phases=1 kv=7.967433714828 kw=1.45 pf=0.93 class=2 NumCust=0.333333
New	load.lo227_2737272_11	Bus1=941_8993918.1	Phases=1 kv=7.967433714828 kw=1.45 pf=0.93 class=2 NumCust=0.333333
New	load.lo227_2737272_12	Bus1=204_672470.1	Phases=1 kv=7.967433714828 kw=1.45 pf=0.93 class=2 NumCust=0.333333
New	load.lo227_2737315_2	Bus1=188_12188.3	Phases=1 kv=7.967433714828 kw=1.45 pf=0.93 class=2 NumCust=0.333333
New	load.lo227_2737317_2	Bus1=195_1467298.3	Phases=1 kv=7.967433714828 kw=1.45 pf=0.93 class=2 NumCust=0.333333
New	load.lo227_2737329_1	Bus1=195_1489907.2	Phases=1 kv=7.967433714828 kw=1.45 pf=0.93 class=2 NumCust=0.333333
New	load.lo227_2737426_3	Bus1=189_3737151.1	Phases=1 kv=7.967433714828 kw=1.45 pf=0.93 class=2 NumCust=0.333333
New	load.lo227_2737477_3	Bus1=941_6309032.2	Phases=1 kv=7.967433714828 kw=1.45 pf=0.93 class=2 NumCust=0.333333
New	load.lo227_2737500_7	Bus1=188_11790.1.2.3	Phases=3 kv=13.8 kw=4.35 pf=0.93 class=2 NumCust=0.333333
New	load.lo227_2737503_2	Bus1=195_1467311.2	Phases=1 kv=7.967433714828 kw=1.45 pf=0.93 class=2 NumCust=0.333333
New	load.lo227_2737524_3	Bus1=204_671520.1	Phases=1 kv=7.967433714828 kw=1.45 pf=0.93 class=2 NumCust=0.333333
New	load.lo227_2737524_4	Bus1=189_3735558.1	Phases=1 kv=7.967433714828 kw=1.45 pf=0.93 class=2 NumCust=0.333333
New	load.lo227_2737568_3	Bus1=204_668826.3	Phases=1 kv=7.967433714828 kw=1.45 pf=0.93 class=2 NumCust=0.333333
New	load.lo227_2737574_3	Bus1=941_6278363.2.3	Phases=2 kv=13.8 kw=2.90 pf=0.93 class=2 NumCust=0.333333
New	load.lo227_2737584_2	Bus1=204_669691.2	Phases=1 kv=7.967433714828 kw=1.45 pf=0.93 class=2 NumCust=0.333333
New	load.lo227_2737584_3	Bus1=189_3752126.2	Phases=1 kv=7.967433714828 kw=1.45 pf=0.93 class=2 NumCust=0.333333
New	load.lo227_2737585_5	Bus1=204_673740.1	Phases=1 kv=7.967433714828 kw=1.45 pf=0.93 class=2 NumCust=0.333333
New	load.lo227_2737585_6	Bus1=189_2641712.1	Phases=1 kv=7.967433714828 kw=1.45 pf=0.93 class=2 NumCust=0.333333
New	load.lo227_2737663_1	Bus1=204_673303.1.2.3	Phases=3 kv=13.8 kw=4.35 pf=0.93 class=2 NumCust=0.333333
New	load.lo227_2737663_2	Bus1=189_2617545.1.2.3	Phases=3 kv=13.8 kw=4.35 pf=0.93 class=2 NumCust=0.333333
New	load.lo227_2737664_2	Bus1=941_6309102.2	Phases=1 kv=7.967433714828 kw=1.45 pf=0.93 class=2 NumCust=0.333333
New	load.lo227_2737693_3	Bus1=941_8981416.3	Phases=1 kv=7.967433714828 kw=1.45 pf=0.93 class=2 NumCust=0.333333
New	load.lo227_2737723_1	Bus1=188_12046.2	Phases=1 kv=7.967433714828 kw=1.45 pf=0.93 class=2 NumCust=0.333333
New	load.lo227_2737798_5	Bus1=226_187184.1.2.3	Phases=3 kv=13.8 kw=4.35 pf=0.93 class=2 NumCust=0.333333
New	load.lo227_2737817_1	Bus1=195_1482026.2	Phases=1 kv=7.967433714828 kw=1.45 pf=0.93 class=2 NumCust=0.333333
New	load.lo227_2737824_5	Bus1=941_6337331.2.3	Phases=2 kv=13.8 kw=2.90 pf=0.93 class=2 NumCust=0.333333
New	load.lo227_2737824_6	Bus1=189_3751812.2.3	Phases=2 kv=13.8 kw=2.90 pf=0.93 class=2 NumCust=0.333333
New	load.lo227_2737824_7	Bus1=941_6309038.2.3	Phases=2 kv=13.8 kw=2.90 pf=0.93 class=2 NumCust=0.333333
New	load.lo227_2737872_1	Bus1=195_1482028.2	Phases=1 kv=7.967433714828 kw=1.45 pf=0.93 class=2 NumCust=0.333333
New	load.lo227_2737880_1	Bus1=188_12247.3	Phases=1 kv=7.967433714828 kw=1.45 pf=0.93 class=2 NumCust=0.333333
New	load.lo227_2737927_1	Bus1=195_1470339.2	Phases=1 kv=7.967433714828 kw=1.45 pf=0.93 class=2 NumCust=0.333333
New	load.lo227_2737959_1	Bus1=195_1479832.1	Phases=1 kv=7.967433714828 kw=1.45 pf=0.93 class=2 NumCust=0.333333
New	load.lo227_2737966_2	Bus1=195_1479710.2	Phases=1 kv=7.967433714828 kw=1.45 pf=0.93 class=2 NumCust=0.333333
New	load.lo227_2737966_3	Bus1=189_3738203.2	Phases=1 kv=7.967433714828 kw=1.45 pf=0.93 class=2 NumCust=0.333333
New	load.lo227_2737966_5	Bus1=941_8997571.2	Phases=1 kv=7.967433714828 kw=1.45 pf=0.93 class=2 NumCust=0.333333
New	load.lo227_2738006_1	Bus1=195_1484415.1	Phases=1 kv=7.967433714828 kw=1.45 pf=0.93 class=2 NumCust=0.333333
New	load.lo227_2738029_4	Bus1=195_1491317.2	Phases=1 kv=7.967433714828 kw=1.45 pf=0.93 class=2 NumCust=0.333333
New	load.lo227_2738029_5	Bus1=189_3739517.2	Phases=1 kv=7.967433714828 kw=1.45 pf=0.93 class=2 NumCust=0.333333
New	load.lo227_2738065_2	Bus1=941_6308979.1	Phases=1 kv=7.967433714828 kw=1.45 pf=0.93 class=2 NumCust=0.333333
New	load.lo227_2738081_2	Bus1=189_2617890.2	Phases=1 kv=7.967433714828 kw=1.45 pf=0.93 class=2 NumCust=0.333333
New	load.lo227_2738081_3	Bus1=941_6309001.2	Phases=1 kv=7.967433714828 kw=1.45 pf=0.93 class=2 NumCust=0.333333
New	load.lo227_2738085_2	Bus1=204_671090.2	Phases=1 kv=7.967433714828 kw=1.45 pf=0.93 class=2 NumCust=0.333333
New	load.lo227_2738085_3	Bus1=189_3738066.2	Phases=1 kv=7.967433714828 kw=1.45 pf=0.93 class=2 NumCust=0.333333
New	load.lo227_2738112_1	Bus1=195_1477416.1	Phases=1 kv=7.967433714828 kw=1.45 pf=0.93 class=2 NumCust=0.333333
New	load.lo227_2738196_2	Bus1=941_6308954.1	Phases=1 kv=7.967433714828 kw=1.45 pf=0.93 class=2 NumCust=0.333333
New	load.lo227_2738203_1	Bus1=195_1468475.3	Phases=1 kv=7.967433714828 kw=1.45 pf=0.93 class=2 NumCust=0.333333
New	load.lo227_2738203_2	Bus1=189_3753153.3	Phases=1 kv=7.967433714828 kw=1.45 pf=0.93 class=2 NumCust=0.333333
New	load.lo227_2738207_3	Bus1=941_6308968.1	Phases=1 kv=7.967433714828 kw=1.45 pf=0.93 class=2 NumCust=0.333333
New	load.lo227_2738207_4	Bus1=189_3751781.1	Phases=1 kv=7.967433714828 kw=1.45 pf=0.93 class=2 NumCust=0.333333
New	load.lo227_2738269_2	Bus1=188_12026.1.2.3	Phases=3 kv=13.8 kw=4.35 pf=0.93 class=2 NumCust=0.333333
New	load.lo227_2738331_4	Bus1=941_3233634.1.2.3	Phases=3 kv=13.8 kw=4.35 pf=0.93 class=2 NumCust=0.333333
New	load.lo227_2738331_6	Bus1=226_409508.1.2.3	Phases=3 kv=13.8 kw=4.35 pf=0.93 class=2 NumCust=0.333333
New	load.lo227_2738331_7	Bus1=189_3742556.1.2.3	Phases=3 kv=13.8 kw=4.35 pf=0.93 class=2 NumCust=0.333333
New	load.lo227_2738382_1	Bus1=204_671105.1	Phases=1 kv=7.967433714828 kw=1.45 pf=0.93 class=2 NumCust=0.333333
New	load.lo227_2738385_1	Bus1=195_1484365.1	Phases=1 kv=7.967433714828 kw=1.45 pf=0.93 class=2 NumCust=0.333333
New	load.lo227_2738386_2	Bus1=195_1485289.1.2.3	Phases=3 kv=13.8 kw=4.35 pf=0.93 class=2 NumCust=0.333333
New	load.lo227_2738408_2	Bus1=941_6295237.1	Phases=1 kv=7.967433714828 kw=1.45 pf=0.93 class=2 NumCust=0.333333
New	load.lo227_2738448_1	Bus1=204_670033.1.2.3	Phases=3 kv=13.8 kw=4.35 pf=0.93 class=2 NumCust=0.333333
New	load.lo227_2738458_4	Bus1=195_1475121.1	Phases=1 kv=7.967433714828 kw=1.45 pf=0.93 class=2 NumCust=0.333333
New	load.lo227_2738458_6	Bus1=941_6303825.1	Phases=1 kv=7.967433714828 kw=1.45 pf=0.93 class=2 NumCust=0.333333
New	load.lo227_2738458_7	Bus1=189_3737924.1	Phases=1 kv=7.967433714828 kw=1.45 pf=0.93 class=2 NumCust=0.333333
New	load.lo227_2738458_9	Bus1=941_8997724.1	Phases=1 kv=7.967433714828 kw=1.45 pf=0.93 class=2 NumCust=0.333333
New	load.lo227_2738475_1	Bus1=195_1475056.1	Phases=1 kv=7.967433714828 kw=1.45 pf=0.93 class=2 NumCust=0.333333
New	load.lo227_2738507_5	Bus1=941_6681605.3	Phases=1 kv=7.967433714828 kw=1.45 pf=0.93 class=2 NumCust=0.333333
New	load.lo227_2738585_3	Bus1=941_6315064.3	Phases=1 kv=7.967433714828 kw=1.45 pf=0.93 class=2 NumCust=0.333333
New	load.lo227_2738632_7	Bus1=195_1467818.1	Phases=1 kv=7.967433714828 kw=1.45 pf=0.93 class=2 NumCust=0.333333
New	load.lo227_2738633_1	Bus1=941_6309027.1	Phases=1 kv=7.967433714828 kw=1.45 pf=0.93 class=2 NumCust=0.333333
New	load.lo227_2738633_5	Bus1=195_2312241.1	Phases=1 kv=7.967433714828 kw=1.45 pf=0.93 class=2 NumCust=0.333333
New	load.lo227_2738633_6	Bus1=941_8999064.1	Phases=1 kv=7.967433714828 kw=1.45 pf=0.93 class=2 NumCust=0.333333
New	load.lo227_2738692_1	Bus1=204_671990.3	Phases=1 kv=7.967433714828 kw=1.45 pf=0.93 class=2 NumCust=0.333333
New	load.lo227_2738702_3	Bus1=226_409517.1.2.3	Phases=3 kv=13.8 kw=4.35 pf=0.93 class=2 NumCust=0.333333
New	load.lo227_2738702_4	Bus1=189_3741818.1.2.3	Phases=3 kv=13.8 kw=4.35 pf=0.93 class=2 NumCust=0.333333
New	load.lo227_2738712_3	Bus1=195_1461256.3	Phases=1 kv=7.967433714828 kw=1.45 pf=0.93 class=2 NumCust=0.333333
New	load.lo227_2738719_7	Bus1=189_3752056.1.2.3	Phases=3 kv=13.8 kw=4.35 pf=0.93 class=2 NumCust=0.333333
New	load.lo227_2738719_8	Bus1=189_3752056.1.2.3	Phases=3 kv=13.8 kw=4.35 pf=0.93 class=2 NumCust=0.333333
New	load.lo227_2738739_3	Bus1=195_1467291.2	Phases=1 kv=7.967433714828 kw=1.45 pf=0.93 class=2 NumCust=0.333333
New	load.lo227_2738739_4	Bus1=941_6417780.2	Phases=1 kv=7.967433714828 kw=1.45 pf=0.93 class=2 NumCust=0.333333
New	load.lo227_2738784_1	Bus1=188_12550.1	Phases=1 kv=7.967433714828 kw=1.45 pf=0.93 class=2 NumCust=0.333333
New	load.lo227_2738798_1	Bus1=195_1479735.1.2.3	Phases=3 kv=13.8 kw=4.35 pf=0.93 class=2 NumCust=0.333333
New	load.lo227_2738801_1	Bus1=941_6278415.1.2.3	Phases=3 kv=13.8 kw=4.35 pf=0.93 class=2 NumCust=0.333333
New	load.lo227_2738839_2	Bus1=204_1251688.3	Phases=1 kv=7.967433714828 kw=1.45 pf=0.93 class=2 NumCust=0.333333
New	load.lo227_2738874_1	Bus1=195_1467323.3	Phases=1 kv=7.967433714828 kw=1.45 pf=0.93 class=2 NumCust=0.333333
New	load.lo227_2738891_1	Bus1=188_12101.3	Phases=1 kv=7.967433714828 kw=1.45 pf=0.93 class=2 NumCust=0.333333
New	load.lo227_2738894_6	Bus1=941_8982997.1.2	Phases=2 kv=13.8 kw=2.90 pf=0.93 class=2 NumCust=0.333333
New	load.lo227_2738894_8	Bus1=941_5680209.1.2	Phases=2 kv=13.8 kw=2.90 pf=0.93 class=2 NumCust=0.333333
New	load.lo227_2738894_9	Bus1=941_6446178.1.2	Phases=2 kv=13.8 kw=2.90 pf=0.93 class=2 NumCust=0.333333
New	load.lo227_2738895_1	Bus1=204_668974.3	Phases=1 kv=7.967433714828 kw=1.45 pf=0.93 class=2 NumCust=0.333333
New	load.lo227_2738895_5	Bus1=204_668974.3	Phases=1 kv=7.967433714828 kw=1.45 pf=0.93 class=2 NumCust=0.333333
New	load.lo227_2738895_6	Bus1=941_9001542.3	Phases=1 kv=7.967433714828 kw=1.45 pf=0.93 class=2 NumCust=0.333333
New	load.lo227_2738914_3	Bus1=189_3738177.1.2.3	Phases=3 kv=13.8 kw=4.35 pf=0.93 class=2 NumCust=0.333333
New	load.lo227_2738914_4	Bus1=195_1482143.1.2.3	Phases=3 kv=13.8 kw=4.35 pf=0.93 class=2 NumCust=0.333333
New	load.lo227_2738921_1	Bus1=188_12025.1.2.3	Phases=3 kv=13.8 kw=4.35 pf=0.93 class=2 NumCust=0.333333
New	load.lo227_2739013_2	Bus1=195_1494343.1.2.3	Phases=3 kv=13.8 kw=4.35 pf=0.93 class=2 NumCust=0.333333
New	load.lo227_2739018_2	Bus1=941_6295219.1	Phases=1 kv=7.967433714828 kw=1.45 pf=0.93 class=2 NumCust=0.333333
New	load.lo227_2739076_1	Bus1=195_1487608.2	Phases=1 kv=7.967433714828 kw=1.45 pf=0.93 class=2 NumCust=0.333333
New	load.lo227_2739084_1	Bus1=204_675113.3	Phases=1 kv=7.967433714828 kw=1.45 pf=0.93 class=2 NumCust=0.333333
New	load.lo227_2739094_1	Bus1=195_1473509.1	Phases=1 kv=7.967433714828 kw=1.45 pf=0.93 class=2 NumCust=0.333333
New	load.lo227_2739112_2	Bus1=941_8979975.1.2.3	Phases=3 kv=13.8 kw=4.35 pf=0.93 class=2 NumCust=0.333333
New	load.lo227_2739122_1	Bus1=195_1477428.2	Phases=1 kv=7.967433714828 kw=1.45 pf=0.93 class=2 NumCust=0.333333
New	load.lo227_2739180_1	Bus1=204_668794.1	Phases=1 kv=7.967433714828 kw=1.45 pf=0.93 class=2 NumCust=0.333333
New	load.lo227_2739222_1	Bus1=204_675915.2	Phases=1 kv=7.967433714828 kw=1.45 pf=0.93 class=2 NumCust=0.333333
New	load.lo227_2739236_1	Bus1=188_11811.1.2.3	Phases=3 kv=13.8 kw=4.35 pf=0.93 class=2 NumCust=0.333333
New	load.lo227_2739236_2	Bus1=941_9001472.1.2.3	Phases=3 kv=13.8 kw=4.35 pf=0.93 class=2 NumCust=0.333333
New	load.lo227_2739268_5	Bus1=941_6309917.2	Phases=1 kv=7.967433714828 kw=1.45 pf=0.93 class=2 NumCust=0.333333
New	load.lo227_2739302_2	Bus1=941_8978998.3	Phases=1 kv=7.967433714828 kw=1.45 pf=0.93 class=2 NumCust=0.333333
New	load.lo227_2739353_3	Bus1=941_3234708.1	Phases=1 kv=7.967433714828 kw=1.45 pf=0.93 class=2 NumCust=0.333333
New	load.lo227_2739353_7	Bus1=941_9002594.1	Phases=1 kv=7.967433714828 kw=1.45 pf=0.93 class=2 NumCust=0.333333
New	load.lo227_2739353_8	Bus1=195_1493884.1	Phases=1 kv=7.967433714828 kw=1.45 pf=0.93 class=2 NumCust=0.333333
New	load.lo227_2739443_1	Bus1=188_12705.1	Phases=1 kv=7.967433714828 kw=1.45 pf=0.93 class=2 NumCust=0.333333
New	load.lo227_2739467_4	Bus1=195_1477365.1.2.3	Phases=3 kv=13.8 kw=4.35 pf=0.93 class=2 NumCust=0.333333
New	load.lo227_2739467_5	Bus1=189_3742549.1.2.3	Phases=3 kv=13.8 kw=4.35 pf=0.93 class=2 NumCust=0.333333
New	load.lo227_2739467_6	Bus1=189_3742549.1.2.3	Phases=3 kv=13.8 kw=4.35 pf=0.93 class=2 NumCust=0.333333
...