WDeixler_Southern_Model_Code_SSPB/MELDRIM_M3442-9466_Losses.Txt

LOSSES REPORT

Power Delivery Element Loss Report

Element                  kW Losses    % of Power   kvar Losses

"Line.1"                                    0.00000,      0.0     -0.00270219
"Line.227_2736023_10"                       0.00000,      0.0     0
"Line.227_2736023_12"                       0.00000,      0.0     0
"Line.227_2736023_17"                       0.00000,      0.0     0
"Line.227_2736023_6"                        0.00000,      0.0     0
"Line.227_2736081_1"                        0.00000,      0.0     0
"Line.227_2736132_3"                        0.00000,      0.0     0
"Line.227_2736132_5"                        0.00000,      0.0     0
"Line.227_2736135_2"                        0.02194,     0.01     -0.0203193
"Line.227_2736158_10"                       0.00208,     0.00     0.00123655
"Line.227_2736158_11"                       0.02637,     0.00     0.0162895
"Line.227_2736158_5"                        0.00318,     0.00     0.00210236
"Line.227_2736158_6"                        0.05655,     0.01     0.0324116
"Line.227_2736158_9"                        0.02590,     0.00     0.0165569
"Line.227_2736206_1"                        0.00000,      0.0     0
"Line.227_2736226_2"                        0.01848,     0.02     -0.0262998
"Line.227_2736228_5"                        0.00000,      0.0     0
"Line.227_2736228_6"                        0.00000,      0.0     0
"Line.227_2736245_2"                        0.02207,     0.01     -0.0503152
"Line.227_2736245_3"                        0.01395,     0.01     -0.031603
"Line.227_2736288_3"                        0.01924,     0.00     -0.0222728
"Line.227_2736288_4"                        0.00110,     0.00     -0.0012086
"Line.227_2736288_5"                        0.01814,     0.00     -0.0210633
"Line.227_2736309_2"                        0.00000,      0.0     0
"Line.227_2736316_2"                        0.00000,      0.0     -0.0147647
"Line.227_2736316_6"                        0.00000,      0.0     -0.000254754
"Line.227_2736316_7"                        0.00000,      0.0     -0.0147647
"Line.227_2736369_1"                        0.00130,     0.01     -0.0107687
"Line.227_2736413_2"                        0.00022,      0.0     -0.0592062
"Line.227_2736413_4"                        0.00004,      0.0     -0.0213262
"Line.227_2736477_4"                        0.00000,      0.0     0
"Line.227_2736478_1"                        0.00000,      0.0     0
"Line.227_2736478_2"                        0.00000,      0.0     0
"Line.227_2736487_1"                        0.00000,      0.0     0
"Line.227_2736497_1"                        0.00000,      0.0     0
"Line.227_2736514_2"                        0.00000,      0.0     -0.0107074
"Line.227_2736517_1"                        0.00000,      0.0     -0.0244652
"Line.227_2736517_2"                        0.00000,      0.0     -0.0122844
"Line.227_2736537_6"                        0.00000,      0.0     0
"Line.227_2736537_7"                        0.00000,      0.0     0
"Line.227_2736606_7"                        0.00000,      0.0     0
"Line.227_2736615_2"                        0.00000,      0.0     0
"Line.227_2736615_3"                        0.00000,      0.0     0
"Line.227_2736633_1"                        0.00065,      0.0     -0.0102766
"Line.227_2736638_7"                        0.01228,     0.01     -0.0133189
"Line.227_2736638_8"                        0.01514,     0.01     -0.017942
"Line.227_2736638_9"                        0.01349,     0.01     -0.0160889
"Line.227_2736641_3"                        0.00000,      0.0     0
"Line.227_2736655_1"                        0.00000,      0.0     -0.0117388
"Line.227_2736666_1"                        0.00000,      0.0     0
"Line.227_2736683_2"                        0.00000,      0.0     0
"Line.227_2736699_4"                        0.00000,      0.0     0
"Line.227_2736710_1"                        0.00000,      0.0     0
"Line.227_2736716_6"                        0.00003,      0.0     -0.000789738
"Line.227_2736733_3"                        0.00000,      0.0     0
"Line.227_2736754_1"                        0.00000,      0.0     0
"Line.227_2736778_1"                        0.00000,      0.0     0
"Line.227_2736781_2"                        0.00002,      0.0     -0.00159306
"Line.227_2736811_1"                        0.00006,      0.0     -0.00260823
"Line.227_2736813_1"                        0.00000,      0.0     0
"Line.227_2736851_2"                        0.00000,      0.0     0
"Line.227_2736852_1"                        0.00000,      0.0     0
"Line.227_2736852_2"                        0.00000,      0.0     0
"Line.227_2736857_1"                        0.00000,      0.0     0
"Line.227_2736865_10"                       0.00022,      0.0     -0.00923947
"Line.227_2736865_12"                       0.00007,      0.0     -0.000416307
"Line.227_2736865_13"                       0.00017,      0.0     -0.00645601
"Line.227_2736865_2"                        0.00022,      0.0     -0.00923947
"Line.227_2736865_3"                        0.00020,      0.0     -0.00643367
"Line.227_2736895_3"                        0.00000,      0.0     -0.0113832
"Line.227_2736896_4"                        0.00000,      0.0     -0.00672791
"Line.227_2736896_5"                        0.00000,      0.0     -0.00754692
"Line.227_2736912_10"                       0.00000,      0.0     0
"Line.227_2736912_12"                       0.00000,      0.0     0
"Line.227_2736912_13"                       0.00000,      0.0     0
"Line.227_2736912_4"                        0.00000,      0.0     0
"Line.227_2736936_4"                        0.00000,      0.0     0
"Line.227_2736936_7"                        0.00000,      0.0     0
"Line.227_2737056_3"                        0.00000,      0.0     0
"Line.227_2737056_7"                        0.00000,      0.0     0
"Line.227_2737071_1"                        0.00000,      0.0     0
"Line.227_2737081_3"                        0.00000,      0.0     0
"Line.227_2737220_3"                        0.00001,      0.0     -0.00850022
"Line.227_2737222_1"                        0.00000,      0.0     0
"Line.227_2737257_1"                        0.00000,      0.0     0
"Line.227_2737272_1"                        0.00000,      0.0     0
"Line.227_2737272_11"                       0.00000,      0.0     0
"Line.227_2737272_12"                       0.00000,      0.0     0
"Line.227_2737315_2"                        0.00000,      0.0     0
"Line.227_2737317_2"                        0.00000,      0.0     0
"Line.227_2737329_1"                        0.00000,      0.0     -0.000657665
"Line.227_2737426_3"                        0.00000,      0.0     0
"Line.227_2737477_3"                        0.00001,      0.0     -0.0101703
"Line.227_2737500_7"                        0.00054,      0.0     -0.0431005
"Line.227_2737503_2"                        0.00000,      0.0     0
"Line.227_2737524_3"                        0.00000,      0.0     0
"Line.227_2737524_4"                        0.00000,      0.0     0
"Line.227_2737568_3"                        0.00000,      0.0     -0.00306199
"Line.227_2737574_3"                        0.00000,      0.0     0
"Line.227_2737584_2"                        0.00000,      0.0     0
"Line.227_2737584_3"                        0.00000,      0.0     0
"Line.227_2737585_5"                        0.00000,      0.0     -0.00359594
"Line.227_2737585_6"                        0.00000,      0.0     -0.0119568
"Line.227_2737663_1"                        0.00000,      0.0     0
"Line.227_2737663_2"                        0.00000,      0.0     0
"Line.227_2737664_2"                        0.00203,     0.01     -0.0153976
"Line.227_2737693_3"                        0.00000,      0.0     0
"Line.227_2737723_1"                        0.00000,      0.0     0
"Line.227_2737798_5"                        0.00123,     0.00     0.000380558
"Line.227_2737817_1"                        0.00000,      0.0     -0.000945691
"Line.227_2737824_5"                        0.03165,     0.01     -0.00591774
"Line.227_2737824_6"                        0.00679,     0.01     -0.0194871
"Line.227_2737824_7"                        0.00085,      0.0     -0.0022766
"Line.227_2737872_1"                        0.00017,      0.0     -0.0141763
"Line.227_2737880_1"                        0.00000,      0.0     0
"Line.227_2737927_1"                        0.00000,      0.0     0
"Line.227_2737959_1"                        0.00000,      0.0     -0.0165301
"Line.227_2737966_2"                        0.00008,      0.0     -0.0134478
"Line.227_2737966_3"                        0.00011,      0.0     -0.0104836
"Line.227_2737966_5"                        0.00000,      0.0     -0.000591418
"Line.227_2738006_1"                        0.00000,      0.0     0
"Line.227_2738029_4"                        0.00003,      0.0     -0.0014547
"Line.227_2738029_5"                        0.00018,      0.0     -0.0101666
"Line.227_2738065_2"                        0.00000,      0.0     -0.00059039
"Line.227_2738081_2"                        0.00000,      0.0     -0.00578466
"Line.227_2738081_3"                        0.00000,      0.0     -0.00639121
"Line.227_2738085_2"                        0.00000,      0.0     -0.00613768
"Line.227_2738085_3"                        0.00000,      0.0     -0.000773842
"Line.227_2738112_1"                        0.00000,      0.0     0
"Line.227_2738196_2"                        0.00000,      0.0     -0.00101357
"Line.227_2738203_1"                        0.00000,      0.0     0
"Line.227_2738203_2"                        0.00000,      0.0     0
"Line.227_2738207_3"                        0.01990,     0.01     0.0148585
"Line.227_2738207_4"                        0.03800,     0.02     0.0282992
"Line.227_2738269_2"                        0.00000,      0.0     0
"Line.227_2738331_4"                        0.20299,     0.03     0.109887
"Line.227_2738331_6"                        0.08282,     0.01     0.0445138
"Line.227_2738331_7"                        0.13217,     0.02     0.0705204
"Line.227_2738382_1"                        0.00000,      0.0     -0.0183238
"Line.227_2738385_1"                        0.00000,      0.0     -0.00936151
"Line.227_2738386_2"                        0.00000,      0.0     0
"Line.227_2738408_2"                        0.00000,      0.0     -0.00105418
"Line.227_2738448_1"                        0.00000,      0.0     0
"Line.227_2738458_4"                        0.00001,      0.0     -0.0250522
"Line.227_2738458_6"                        0.00000,      0.0     -0.000342386
"Line.227_2738458_7"                        0.00000,      0.0     -0.000924334
"Line.227_2738458_9"                        0.00000,      0.0     -0.0113267
"Line.227_2738475_1"                        0.00095,     0.01     -0.013845
"Line.227_2738507_5"                        0.00000,      0.0     0
"Line.227_2738585_3"                        0.00000,      0.0     0
"Line.227_2738632_7"                        0.00002,      0.0     -0.0103737
"Line.227_2738633_1"                        0.00012,      0.0     -0.0053849
"Line.227_2738633_5"                        0.00016,      0.0     -0.00561241
"Line.227_2738633_6"                        0.00012,      0.0     -0.0053849
"Line.227_2738692_1"                        0.00000,      0.0     -0.0111254
"Line.227_2738702_3"                        0.00310,     0.00     0.0041023
"Line.227_2738702_4"                        0.03832,     0.01     0.0508557
"Line.227_2738712_3"                        0.00000,      0.0     0
"Line.227_2738719_7"                        0.00000,      0.0     0
"Line.227_2738719_8"                        0.00000,      0.0     0
"Line.227_2738739_3"                        0.00000,      0.0     0
"Line.227_2738739_4"                        0.00000,      0.0     0
"Line.227_2738784_1"                        0.00000,      0.0     -0.00077082
"Line.227_2738798_1"                        0.00000,      0.0     0
"Line.227_2738801_1"                        0.00000,      0.0     0
"Line.227_2738839_2"                        0.00000,      0.0     0
"Line.227_2738874_1"                        0.00000,      0.0     0
"Line.227_2738891_1"                        0.00000,      0.0     0
"Line.227_2738894_6"                        0.00000,      0.0     0
"Line.227_2738894_8"                        0.00000,      0.0     0
"Line.227_2738894_9"                        0.00000,      0.0     0
"Line.227_2738895_1"                        0.00000,      0.0     -0.0124642
"Line.227_2738895_5"                        0.00000,      0.0     -0.000755663
"Line.227_2738895_6"                        0.00000,      0.0     -0.0117061
"Line.227_2738914_3"                        0.00174,     0.00     0.000269555
"Line.227_2738914_4"                        0.01807,     0.00     0.00336852
"Line.227_2738921_1"                        0.00000,      0.0     0
"Line.227_2739013_2"                        0.00000,      0.0     0
"Line.227_2739018_2"                        0.00000,      0.0     -0.00108088
"Line.227_2739076_1"                        0.00001,      0.0     -0.00154415
"Line.227_2739084_1"                        0.00000,      0.0     -0.0140841
"Line.227_2739094_1"                        0.00000,      0.0     -0.00990458
"Line.227_2739112_2"                        0.00000,      0.0     0
"Line.227_2739122_1"                        0.00000,      0.0     0
"Line.227_2739180_1"                        0.00000,      0.0     0
"Line.227_2739222_1"                        0.00000,      0.0     0
"Line.227_2739236_1"                        0.03617,     0.01     -0.01222
"Line.227_2739236_2"                        0.01819,     0.00     -0.00644449
"Line.227_2739268_5"                        0.00000,      0.0     0
"Line.227_2739302_2"                        0.00000,      0.0     0
"Line.227_2739353_3"                        0.01920,     0.02     0.00166815
"Line.227_2739353_7"                        0.01920,     0.02     0.00166815
"Line.227_2739353_8"                        0.00065,      0.0     7.12164E-005
"Line.227_2739443_1"                        0.00012,      0.0     -0.0121791
"Line.227_2739467_4"                        0.42399,     0.05     0.263442
"Line.227_2739467_5"                        0.25290,     0.03     0.156197
"Line.227_2739467_6"                        0.18575,     0.02     0.114863
"Line.227_2739473_1"                        0.00000,      0.0     0
"Line.227_2739479_1"                        0.00000,      0.0     0
"Line.227_2739479_2"                        0.00000,      0.0     0
"Line.227_2739512_1"                        0.00000,      0.0     0
...
"Line.227_2754918_4-1"                      0.00000,      0.0     -0.00190237
"Line.227_2754918_5"                        0.00002,      0.0     -0.0250406
"Line.227_2754918_5-1"                      0.00000,      0.0     -0.00407184
"Line.227_2754934_4"                        0.01922,     0.01     -0.0408421
"Line.227_2754934_5"                        0.00165,     0.00     0.00227449
"Line.227_2754934_6"                        0.01178,     0.00     -0.0252167
"Line.227_2754999_4"                        0.00000,      0.0     -0.00656552
"Line.227_2754999_5"                        0.00000,      0.0     -0.000670977
"Line.227_2755015_17"                       0.00000,      0.0     -0.000964848
"Line.227_2755015_19"                       0.00002,      0.0     -0.00987521
"Line.227_2755015_4"                        0.00001,      0.0     -0.00117438
"Line.227_2755017_2"                        0.00000,      0.0     0
"Line.227_2755037_1"                        0.00328,     0.00     -0.00125134
"Line.227_2755050_1"                        0.00000,      0.0     0
"Line.227_2755059_1"                        0.00000,      0.0     0
"Line.227_2755068_1"                        0.00000,      0.0     0
"Line.227_2755068_2"                        0.00000,      0.0     0
"Line.227_2755089_2"                        0.00000,      0.0     -0.0101355
"Line.227_2755130_1"                        0.00000,      0.0     0
"Line.227_2755187_2"                        0.00000,      0.0     0
"Line.227_2755229_1"                        0.00000,      0.0     0
"Line.227_2755311_10"                       0.01567,     0.00     -0.00914577
"Line.227_2755311_5"                        0.07208,     0.01     0.11802
"Line.227_2755311_6"                        0.01669,     0.00     -0.00949096
"Line.227_2755334_3"                        0.00001,      0.0     -0.0150773
"Line.227_2755346_3"                        0.00016,      0.0     -0.0117383
"Line.227_2755356_1"                        0.00000,      0.0     0
"Line.227_2755425_3"                        0.00000,      0.0     -0.00708905
"Line.227_2755435_1"                        0.00000,      0.0     0
"Line.227_2755435_2"                        0.00000,      0.0     0
"Line.227_2755435_3"                        0.00000,      0.0     0
"Line.227_2755459_3"                        0.00000,      0.0     0
"Line.227_2755467_1"                        0.00002,      0.0     -0.0217389
"Line.227_2755467_2"                        0.00001,      0.0     -0.0164101
"Line.227_2755473_1"                        0.00000,      0.0     0
"Line.227_2755476_10"                       0.00000,      0.0     0
"Line.227_2755476_12"                       0.00000,      0.0     0
"Line.227_2755476_13"                       0.00000,      0.0     0
"Line.227_2755476_6"                        0.00000,      0.0     0
"Line.227_2755517_1"                        0.00000,      0.0     0
"Line.227_2755541_1"                        0.00002,      0.0     -0.0107915
"Line.227_2755541_3"                        0.00001,      0.0     -0.0185304
"Line.227_2755541_4"                        0.00000,      0.0     -0.00153846
"Line.227_2755546_2"                        0.00364,     0.01     -0.0131047
"Line.227_2755566_1"                        0.00000,      0.0     0
"Line.227_2755577_4"                        0.00000,      0.0     -0.00030678
"Line.227_2755577_5"                        0.00005,      0.0     -0.00546116
"Line.227_2755608_1"                        0.00000,      0.0     0
"Line.227_2755649_2"                        0.00002,      0.0     -0.00860366
"Line.227_2755680_3"                        0.00634,     0.00     -0.0538933
"Line.227_2755689_7"                        0.00000,      0.0     0
"Line.227_2755729_1"                        0.00000,      0.0     0
"Line.227_2755729_3"                        0.00000,      0.0     0
"Line.227_2755756_2"                        0.00000,      0.0     0
"Line.227_2755776_4"                        0.00000,      0.0     -0.00101383
"Line.227_2755776_6"                        0.00000,      0.0     -0.00949418
"Line.227_2755811_1"                        0.00000,      0.0     -0.000525594
"Line.227_2755816_1"                        0.00000,      0.0     0
"Line.227_2755822_1"                        0.00000,      0.0     0
"Line.227_2755822_3"                        0.00000,      0.0     0
"Line.227_2755877_3"                        0.00000,      0.0     0
"Line.227_2755894_2"                        0.00000,      0.0     -0.00885961
"Line.227_2755894_3"                        0.00000,      0.0     -0.000890486
"Line.227_2755946_4"                        0.00000,      0.0     -0.00549971
"Line.227_2755946_5"                        0.00000,      0.0     -0.000913322
"Line.227_2755949_2"                        0.00000,      0.0     -0.00106884
"Line.227_2755997_1"                        0.00002,      0.0     -0.0290954
"Line.227_2755997_3"                        0.00000,      0.0     -0.00963477
"Line.227_2756002_3"                        0.00000,      0.0     0
"Line.227_2756019_5"                        0.00000,      0.0     0
"Line.227_2756019_6"                        0.00000,      0.0     0
"Line.227_2756081_5"                        0.00000,      0.0     -0.00106841
"Line.227_2756164_2"                        0.00026,      0.0     -0.00928517
"Line.227_2756169_2"                        0.00000,      0.0     0
"Line.227_2756215_1"                        0.00000,      0.0     -0.00844032
"Line.227_2756294_4"                        0.00625,     0.00     -0.0351214
"Line.227_2756294_5"                        0.00049,      0.0     -0.0136209
"Line.227_2756294_6"                        0.00007,      0.0     -0.00202316
"Line.227_2756305_1"                        0.00000,      0.0     0
"Line.227_2756305_2"                        0.00000,      0.0     0
"Line.227_2756383_4"                        0.00001,      0.0     -0.0092711
"Line.227_2756383_5"                        0.00000,      0.0     -0.000869456
"Line.227_2756383_6"                        0.00001,      0.0     -0.00583286
"Line.227_2756393_5"                        0.00000,      0.0     0
"Line.227_2756393_6"                        0.00000,      0.0     0
"Line.227_2756410_1"                        0.00000,      0.0     0
"Line.227_2756439_4"                        0.00000,      0.0     0
"Line.227_2756439_5"                        0.00000,      0.0     0
"Line.227_2756439_6"                        0.00000,      0.0     0
"Line.227_2756446_1"                        0.00000,      0.0     0
"Line.227_2756446_2"                        0.00000,      0.0     0
"Line.227_2756446_5"                        0.00000,      0.0     0
"Line.227_2756446_6"                        0.00000,      0.0     0
"Line.227_2756463_4"                        0.00000,      0.0     0
"Line.227_2756477_5"                        0.00000,      0.0     0
"Line.227_2756477_8"                        0.00000,      0.0     0
"Line.227_2756528_3"                        0.00000,      0.0     -0.00456715
"Line.227_2756528_4"                        0.00000,      0.0     -0.0016599
"Line.227_2756538_1"                        0.00000,      0.0     -0.000879061
"Line.227_2756558_4"                        0.00037,      0.0     -0.00675093
"Line.227_2756558_5"                        0.00100,     0.01     -0.0227904
"Line.227_2756558_6"                        0.00078,      0.0     -0.0183572
"Line.227_2756701_1"                        0.00000,      0.0     0
"Line.227_2756707_3"                        0.00000,      0.0     0
"Line.227_2756707_4"                        0.00000,      0.0     0
"Line.227_2756786_1"                        0.00000,      0.0     0
"Line.227_2756806_13"                       0.00002,      0.0     -0.000117103
"Line.227_2756806_14"                       0.00691,     0.01     -0.0307294
"Line.227_2756806_15"                       0.00065,      0.0     -0.0128903
"Line.227_2756806_16"                       0.00071,      0.0     -0.0128492
"Line.227_2756812_2"                        0.00000,      0.0     0
"Line.227_2756812_3"                        0.00000,      0.0     0
"Line.227_2756812_4"                        0.00000,      0.0     0
"Line.227_2756865_4"                        0.00002,      0.0     -0.00731575
"Line.227_2756865_5"                        0.00020,      0.0     -0.0698855
"Line.227_2756890_3"                        0.00042,      0.0     -0.0261111
"Line.227_2756890_4"                        0.00025,      0.0     -0.0168871
"Line.227_2756910_3"                        0.00057,      0.0     -0.0137011
"Line.227_2756910_7"                        0.00057,      0.0     -0.0137011
"Line.227_2756910_8"                        0.00000,      0.0     -0.000203767
"Line.227_2756911_1"                        0.00000,      0.0     0
"Line.227_2756966_1"                        0.00002,      0.0     -0.000910305
"Line.227_2757033_1"                        0.00000,      0.0     0
"Line.227_2757053_2"                        0.00000,      0.0     -0.0040129
"Line.227_2757053_3"                        0.00000,      0.0     -0.000707503
"Line.227_2757071_2"                        0.00000,      0.0     -0.00797279
"Line.227_2757071_3"                        0.00000,      0.0     -0.000328963
"Line.227_2757083_1"                        0.00000,      0.0     -0.000574302
"Line.227_2757090_2"                        0.00001,      0.0     -0.00859093
"Line.227_2757090_3"                        0.00000,      0.0     -0.00153569
"Line.227_2757090_4"                        0.00000,      0.0     -0.0051114
"Line.227_2757148_1"                        0.00000,      0.0     0
"Line.227_2757203_1"                        0.00000,      0.0     -0.000790261
"Line.227_2757237_1"                        0.00000,      0.0     0
"Line.227_2757270_12"                       0.00000,      0.0     0
"Line.227_2757270_13"                       0.00000,      0.0     0
"Line.227_2757274_11"                       0.00000,      0.0     -0.00781654
"Line.227_2757274_12"                       0.00000,      0.0     -0.0065819
"Line.227_2757274_2"                        0.00000,      0.0     -0.00869647
"Line.227_2757274_3"                        0.00000,      0.0     -0.0065819
"Line.227_2757274_9"                        0.00000,      0.0     -0.00176763
"Line.227_2757308_4"                        0.34475,     0.02     0.291438
"Line.227_2757308_5"                        0.22711,     0.03     0.13253
"Line.227_2757308_6"                        0.11622,     0.01     0.0680021
"Line.227_2757360_4"                        0.00000,      0.0     0
"Line.227_2757360_5"                        0.00000,      0.0     0
"Line.227_2757360_6"                        0.00000,      0.0     0
"Line.227_2757380_7"                        0.00001,      0.0     -0.00166182
"Line.227_2757436_1"                        0.02225,     0.03     -0.00696108
"Line.227_2757436_2"                        0.01282,     0.02     -0.0042374
"Line.227_2757487_1"                        0.00000,      0.0     0
"Line.227_2757500_2"                        0.00000,      0.0     -0.000302239
"Line.227_2757525_1"                        0.00000,      0.0     0
"Line.227_2757563_1"                        0.00000,      0.0     0
"Line.227_2757645_2"                        0.00000,      0.0     0
"Line.227_2757665_6"                        0.00000,      0.0     0
"Line.227_2757665_7"                        0.00000,      0.0     0
"Line.227_2757665_8"                        0.00000,      0.0     0
"Line.227_2757754_4"                        0.00000,      0.0     -0.0021004
"Line.227_2757754_5"                        0.00000,      0.0     -0.00975123
"Line.227_2757826_3"                        0.00007,      0.0     -0.00999843
"Line.227_2757826_4"                        0.00002,      0.0     -0.00779885
"Line.227_2757834_1"                        0.00000,      0.0     0
"Line.227_2757883_2"                        0.00000,      0.0     -0.0182906
"Line.227_2757883_3"                        0.00000,      0.0     -0.0144341
"Line.227_2757887_2"                        0.00000,      0.0     -0.0039709
"Line.227_2757896_1"                        0.00000,      0.0     -0.000669889
"Line.227_2757940_2"                        0.01416,     0.02     -0.00214336
"Line.227_2757940_3"                        0.02118,     0.02     -0.00285677
"Line.227_2757940_4"                        0.02042,     0.02     -0.00275476
"Line.227_2757954_5"                        0.00000,      0.0     0
"Line.227_2757954_6"                        0.00000,      0.0     0
"Line.227_2757963_1"                        0.00806,     0.01     -0.00580149
"Line.227_2757989_13"                       0.13914,     0.02     0.0625344
"Line.227_2757989_6"                        0.31443,     0.04     0.16927
"Line.227_2757989_7"                        0.05793,     0.01     0.0104035
"Line.227_2757989_8"                        0.01825,     0.00     0.00828697
"Line.227_2757994_4"                        0.00000,      0.0     -0.000836314
"Line.227_2758007_2"                        0.06013,     0.03     0.0442337
"Line.227_2758007_3"                        0.00187,     0.00     0.00137995
"Line.227_2758041_3"                        0.00000,      0.0     0
"Line.227_2758131_4"                        0.00016,      0.0     -0.0113271
"Line.227_2758182_1"                        0.00000,      0.0     0
"Line.227_2758245_2"                        0.00000,      0.0     -0.000733043
"Line.227_2758266_1"                        0.00000,      0.0     0
"Line.227_2758351_12"                       0.00000,      0.0     -0.000836496
"Line.227_2758351_13"                       0.00000,      0.0     -0.0108219
"Line.227_2758351_14"                       0.00000,      0.0     -0.0101977
"Line.227_2758351_4"                        0.00005,      0.0     -0.000345109
"Line.227_2758351_8"                        0.00001,      0.0     -0.00834187
"Line.227_2758354_1"                        0.00000,      0.0     0
"Line.227_2758365_1"                        0.00000,      0.0     0
"Line.227_2758372_2"                        0.00000,      0.0     -0.00154411
"Line.227_2758379_4"                        0.00000,      0.0     0
"Line.227_2758379_6"                        0.00000,      0.0     0
"Line.227_2758379_7"                        0.00000,      0.0     0
"Line.227_2758422_1"                        0.00000,      0.0     0
"Line.227_2758468_2"                        0.00023,      0.0     -0.000645554
"Line.227_2758494_1"                        0.00000,      0.0     0
"Line.227_2758515_6"                        0.00000,      0.0     0
"Line.227_2758515_8"                        0.00000,      0.0     0
"Line.227_2758527_2"                        0.07704,     0.00     0.167518
"Line.227_2758653_2"                        0.00000,      0.0     0
...
"Line.227_4166665_6-1"                      0.03160,     0.01     0.00304202
"Line.227_4166666_1"                        0.00000,      0.0     -0.00285108
"Line.227_4166667_1"                        0.00000,      0.0     -0.0021263
"Line.227_4166668_1"                        0.00001,      0.0     -0.0037179
...